
     RDKit          3D

 18 19  0  0  0  0  0  0  0  0999 V2000
   -2.7038   -0.7422    0.3281 C   0  0  0  0  0  0  0  0  0  0  0  0
   -1.3565   -0.2163    0.1651 N   0  0  0  0  0  0  0  0  0  0  0  0
   -1.2544    1.1657    0.1723 C   0  0  0  0  0  0  0  0  0  0  0  0
   -2.2083    1.8865    0.3049 O   0  0  0  0  0  0  0  0  0  0  0  0
    0.0211    1.6740    0.0126 N   0  0  0  0  0  0  0  0  0  0  0  0
    1.1286    0.9049   -0.1342 C   0  0  0  0  0  0  0  0  0  0  0  0
    2.3186    1.4876   -0.2794 N   0  0  0  0  0  0  0  0  0  0  0  0
    3.3659    0.7375   -0.4159 N   0  0  0  0  0  0  0  0  0  0  0  0
    3.2357   -0.5765   -0.4073 C   0  0  0  0  0  0  0  0  0  0  0  0
    2.0954   -1.2422   -0.2714 N   0  0  0  0  0  0  0  0  0  0  0  0
    1.0118   -0.5021   -0.1324 C   0  0  0  0  0  0  0  0  0  0  0  0
   -0.3195   -1.1332    0.0267 C   0  0  0  0  0  0  0  0  0  0  0  0
   -0.5124   -2.3216    0.0368 O   0  0  0  0  0  0  0  0  0  0  0  0
   -2.6845   -1.7994    0.0743 H   0  0  0  0  0  0  0  0  0  0  0  0
   -3.3829   -0.1983   -0.3259 H   0  0  0  0  0  0  0  0  0  0  0  0
   -3.0318   -0.6139    1.3597 H   0  0  0  0  0  0  0  0  0  0  0  0
    0.1237    2.6821    0.0101 H   0  0  0  0  0  0  0  0  0  0  0  0
    4.1380   -1.1583   -0.5213 H   0  0  0  0  0  0  0  0  0  0  0  0
  1  2  1  0
  2  3  1  0
  3  4  2  0
  3  5  1  0
  5  6  1  0
  6  7  2  0
  7  8  1  0
  8  9  2  0
  9 10  1  0
 10 11  2  0
 11 12  1  0
 12 13  2  0
 12  2  1  0
 11  6  1  0
  1 14  1  0
  1 15  1  0
  1 16  1  0
  5 17  1  0
  9 18  1  0
M  END
>  <CHEMBL_ID>  (1)
CHEMBL1703515

>  <CONF_ID>  (1)
conf_00

>  <GFN2:TOTAL_ENERGY>  (1)
-38.16365621449

>  <GFN2:ATOMIC_ENERGY>  (1)
-33.291526755016996

>  <GFN2:FORMATION_ENERGY>  (1)
-4.872129459473001

>  <GFN2:TOTAL_ENTHALPY>  (1)
-38.032045266443

>  <GFN2:TOTAL_FREE_ENERGY>  (1)
-38.080628686219

>  <GFN2:DIPOLE>  (1)
-0.447|1.019|0.043|1.113

>  <GFN2:QUADRUPOLE>  (1)
-1.454|1.773|-9.506|1.77|-0.443|10.961

>  <GFN2:ROT_CONSTANTS>  (1)
0.0541964|0.02388745|0.01663152

>  <GFN2:ENTHALPY>  (1)
4952.966|888.752|1481.254|7322.973

>  <GFN2:HEAT_CAPACITY>  (1)
33.365|2.981|4.968|41.314

>  <GFN2:ENTROPY>  (1)
30.120|30.695|41.437|102.252

>  <GFN2:HOMO_ENERGY>  (1)
-0.3837874

>  <GFN2:LUMO_ENERGY>  (1)
-0.3430458

>  <GFN2:HOMO_LUMO_GAP>  (1)
0.0407416

>  <GFN2:FERMI_LEVEL>  (1)
-0.3634166

>  <GFN2:MULLIKEN_CHARGES>  (1)
-0.05114212|-0.09987469|0.33047603|-0.40132268|-0.16097878|0.14327570|-0.13509733|-0.11257799|0.13158525|-0.18266265|0.06425745|0.26850506|-0.35200216|0.09707171|0.08357165|0.07589243|0.22788170|0.07314142

>  <GFN2:COVALENT_COORDINATION_NUMBER>  (1)
3.708|2.741|2.709|0.860|2.702|2.868|1.945|1.935|2.883|1.840|2.987|2.765|0.858|0.925|0.925|0.925|0.860|0.926

>  <GFN2:DISPERSION_COEFFICIENT_MOLECULAR>  (1)
4837.03594

>  <GFN2:DISPERSION_COEFFICIENT_ATOMIC>  (1)
21.638|23.196|21.383|21.706|24.481|24.879|24.693|24.212|25.120|25.769|26.553|22.467|20.745|1.812|1.943|2.022|0.974|2.051

>  <GFN2:POLARIZABILITY_MOLECULAR>  (1)
106.162569

>  <GFN2:POLARIZABILITY_ATOMIC>  (1)
6.649|7.153|7.569|6.247|7.349|8.176|7.369|7.296|8.217|7.523|8.453|7.763|6.107|2.105|2.180|2.224|1.546|2.240

>  <GFN2:WIBERG_BOND_ORDER>  (1)
0.975|1.107|1.681|1.100|1.176|1.372|1.406|1.448|1.396|1.455|0.998|1.743|1.118|1.238|0.973|0.974|0.972|0.914|0.954

>  <GFN2:TOTAL_WIBERG_BOND_ORDER>  (1)
3.939|3.566|3.961|2.025|3.515|3.967|3.061|3.070|3.955|3.075|3.983|3.955|2.089|0.991|0.992|0.993|0.948|0.994

>  <DFT:TOTAL_ENERGY>  (1)
-655.1584129422732

>  <DFT:ATOMIC_ENERGY>  (1)
-651.8665029347557

>  <DFT:FORMATION_ENERGY>  (1)
-3.291910007517572

>  <DFT:ESP_AT_NUCLEI>  (1)
-14.658249|-18.244519|-14.534113|-22.306583|-18.237656|-14.583904|-18.270977|-18.280618|-14.624857|-18.288905|-14.617709|-14.566662|-22.302142|-1.078412|-1.080668|-1.081001|-0.948013|-1.06106

>  <DFT:LOWDIN_CHARGES>  (1)
0.042323|-0.0515|0.101896|-0.194775|0.018007|0.021134|-0.050994|-0.032038|0.016957|-0.015228|-0.050702|0.081407|-0.148508|0.039453|0.038144|0.036941|0.114379|0.033106

>  <DFT:MULLIKEN_CHARGES>  (1)
0.09347|-0.397577|0.276921|-0.230368|-0.133229|0.138591|-0.067942|-0.087097|0.085651|-0.053855|-0.201274|0.290318|-0.172024|0.081219|0.069699|0.066671|0.176968|0.06386

>  <DFT:ROT_CONSTANTS>  (1)
0.053977528458486634|0.0233329586206402|0.016340803079044293

>  <DFT:DIPOLE>  (1)
-0.5007094338343419|0.5939449412297811|0.05752595187105767|0.7789671145060147

>  <DFT:XC_ENERGY>  (1)
-59.887847783766986

>  <DFT:NUCLEAR_REPULSION_ENERGY>  (1)
786.1489362299887

>  <DFT:ONE_ELECTRON_ENERGY>  (1)
-2449.5571779931806

>  <DFT:TWO_ELECTRON_ENERGY>  (1)
1068.1465798324832

>  <DFT:HOMO_ENERGY>  (1)
-0.3421420525300779

>  <DFT:LUMO_ENERGY>  (1)
-0.048319479895964405

>  <DFT:HOMO_LUMO_GAP>  (1)
0.2938225726341135

>  <DFT:MAYER_BOND_ORDER>  (1)
0.913268|1.035566|2.11856|1.068714|1.164735|1.532844|1.33433|1.509274|1.456418|1.616513|0.904682|2.217263|1.048211|1.204332|0.957363|0.971234|0.981553|0.891668|0.976576

>  <DFT:WIBERG_LOWDIN_BOND_ORDER>  (1)
1.010897|1.191722|2.170184|1.201294|1.245594|1.577539|1.625026|1.651873|1.587202|1.614072|1.028479|2.202003|1.205792|1.278792|0.950236|0.95766|0.961078|0.950064|0.941746

>  <DFT:TOTAL_MAYER_BOND_ORDER>  (1)
3.881869|3.093784|4.324618|2.286049|3.204079|4.060059|3.040517|2.983841|4.079852|3.183922|3.889476|4.183773|2.370532|1.021888|1.003881|0.995737|1.004168|0.99489

>  <DFT:TOTAL_WIBERG_LOWDIN_BOND_ORDER>  (1)
4.09391|4.004738|4.922485|2.605818|3.876245|4.672233|3.679672|3.677476|4.558683|3.660545|4.553528|4.81984|2.645788|1.114892|1.098419|1.088399|1.13407|1.084635

>  <MBIScharge>  (1)
-0.2029|-0.3875|0.8998|-0.6535|-0.6427|0.4950|-0.2877|-0.2745|0.3566|-0.4014|0.0299|0.6508|-0.5629|0.1518|0.1412|0.1359|0.4412|0.1109

$$$$

     RDKit          3D

 13 13  0  0  0  0  0  0  0  0999 V2000
    2.6387    0.9503   -0.1488 O   0  0  0  0  0  0  0  0  0  0  0  0
    1.9301   -0.0192   -0.0466 C   0  0  0  0  0  0  0  0  0  0  0  0
    2.3956   -1.2600    0.0424 O   0  0  0  0  0  0  0  0  0  0  0  0
    0.4409    0.0532   -0.0129 C   0  0  0  0  0  0  0  0  0  0  0  0
   -0.2033    1.2763   -0.2107 C   0  0  0  0  0  0  0  0  0  0  0  0
   -1.5217    1.3709   -0.1890 N   0  0  0  0  0  0  0  0  0  0  0  0
   -2.2039    0.2580    0.0314 C   0  0  0  0  0  0  0  0  0  0  0  0
   -1.5631   -0.9624    0.2321 C   0  0  0  0  0  0  0  0  0  0  0  0
   -0.2478   -1.0624    0.2083 N   0  0  0  0  0  0  0  0  0  0  0  0
    3.3661   -1.2606    0.0204 H   0  0  0  0  0  0  0  0  0  0  0  0
    0.3588    2.1815   -0.3898 H   0  0  0  0  0  0  0  0  0  0  0  0
   -3.2810    0.3517    0.0471 H   0  0  0  0  0  0  0  0  0  0  0  0
   -2.1094   -1.8770    0.4163 H   0  0  0  0  0  0  0  0  0  0  0  0
  1  2  2  0
  2  3  1  0
  2  4  1  0
  4  5  2  0
  5  6  1  0
  6  7  2  0
  7  8  1  0
  8  9  2  0
  9  4  1  0
  3 10  1  0
  5 11  1  0
  7 12  1  0
  8 13  1  0
M  END
>  <CHEMBL_ID>  (2)
CHEMBL613

>  <CONF_ID>  (2)
conf_00

>  <GFN2:TOTAL_ENERGY>  (2)
-26.70147870914

>  <GFN2:ATOMIC_ENERGY>  (2)
-23.287275135878996

>  <GFN2:FORMATION_ENERGY>  (2)
-3.4142035732610054

>  <GFN2:TOTAL_ENTHALPY>  (2)
-26.606149194627

>  <GFN2:TOTAL_FREE_ENERGY>  (2)
-26.647075347055

>  <GFN2:DIPOLE>  (2)
-0.948|-1.779|0.175|2.024

>  <GFN2:QUADRUPOLE>  (2)
6.399|-3.063|-7.637|-0.42|1.185|1.239

>  <GFN2:ROT_CONSTANTS>  (2)
0.1367401|0.04298968|0.03273783

>  <GFN2:ENTHALPY>  (2)
2929.782|888.752|1481.254|5299.788

>  <GFN2:HEAT_CAPACITY>  (2)
20.967|2.981|4.968|28.916

>  <GFN2:ENTROPY>  (2)
17.274|28.519|40.343|86.136

>  <GFN2:HOMO_ENERGY>  (2)
-0.3756905

>  <GFN2:LUMO_ENERGY>  (2)
-0.3099234

>  <GFN2:HOMO_LUMO_GAP>  (2)
0.065767

>  <GFN2:FERMI_LEVEL>  (2)
-0.342807

>  <GFN2:MULLIKEN_CHARGES>  (2)
-0.40574335|0.35440933|-0.34577846|0.06142747|0.06073742|-0.18489789|0.05758920|0.05458433|-0.17858757|0.33651323|0.07449682|0.05770300|0.05754647

>  <GFN2:COVALENT_COORDINATION_NUMBER>  (2)
0.857|2.695|1.660|2.962|2.913|1.839|2.910|2.908|1.843|0.804|0.926|0.925|0.926

>  <GFN2:DISPERSION_COEFFICIENT_MOLECULAR>  (2)
2459.254523

>  <GFN2:DISPERSION_COEFFICIENT_ATOMIC>  (2)
21.796|20.983|19.827|26.621|26.639|25.820|26.708|26.775|25.676|0.621|2.037|2.226|2.228

>  <GFN2:POLARIZABILITY_MOLECULAR>  (2)
76.829301

>  <GFN2:POLARIZABILITY_ATOMIC>  (2)
6.259|7.497|6.011|8.463|8.463|7.530|8.474|8.485|7.510|1.238|2.232|2.333|2.334

>  <GFN2:WIBERG_BOND_ORDER>  (2)
1.738|1.159|0.977|1.366|1.453|1.448|1.387|1.466|1.405|0.862|0.958|0.962|0.961

>  <GFN2:TOTAL_WIBERG_BOND_ORDER>  (2)
2.036|3.923|2.236|3.982|3.973|3.069|3.977|3.978|3.073|0.886|0.994|0.997|0.996

>  <DFT:TOTAL_ENERGY>  (2)
-452.403118549496

>  <DFT:ATOMIC_ENERGY>  (2)
-449.99866072466716

>  <DFT:FORMATION_ENERGY>  (2)
-2.404457824828853

>  <DFT:ESP_AT_NUCLEI>  (2)
-22.313034|-14.571724|-22.249539|-14.650508|-14.655429|-18.316046|-14.654738|-14.656828|-18.312419|-0.936467|-1.074774|-1.06908|-1.070694

>  <DFT:LOWDIN_CHARGES>  (2)
-0.186248|0.078693|-0.017821|-0.061159|0.041765|-0.053402|0.01811|0.003232|-0.032806|0.107548|0.038042|0.03232|0.031728

>  <DFT:MULLIKEN_CHARGES>  (2)
-0.224767|0.226629|-0.169394|-0.127505|0.07317|-0.114653|0.033078|0.03085|-0.080698|0.204658|0.054124|0.049082|0.045426

>  <DFT:ROT_CONSTANTS>  (2)
0.13600406255200775|0.042003883925693125|0.032122372367730315

>  <DFT:DIPOLE>  (2)
-0.9032620774577451|-1.5830294018459374|0.16730119617490036|1.830260680319484

>  <DFT:XC_ENERGY>  (2)
-41.38006245225702

>  <DFT:NUCLEAR_REPULSION_ENERGY>  (2)
414.6914823570415

>  <DFT:ONE_ELECTRON_ENERGY>  (2)
-1436.9397291162627

>  <DFT:TWO_ELECTRON_ENERGY>  (2)
611.2296927817597

>  <DFT:HOMO_ENERGY>  (2)
-0.3413895950903751

>  <DFT:LUMO_ENERGY>  (2)
-0.011886502284260738

>  <DFT:HOMO_LUMO_GAP>  (2)
0.32950309280611434

>  <DFT:MAYER_BOND_ORDER>  (2)
2.134806|1.310121|0.888854|1.37236|1.534305|1.532486|1.347004|1.540821|1.524237|0.937287|0.976266|0.976823|0.976757

>  <DFT:WIBERG_LOWDIN_BOND_ORDER>  (2)
2.226505|1.412992|1.017374|1.402803|1.620342|1.615831|1.439816|1.629706|1.564326|1.075791|0.930936|0.937718|0.936901

>  <DFT:TOTAL_MAYER_BOND_ORDER>  (2)
2.278367|4.333229|2.286963|3.845187|4.016597|3.169384|3.974075|3.97604|3.156533|1.013876|1.009776|0.988179|0.987994

>  <DFT:TOTAL_WIBERG_LOWDIN_BOND_ORDER>  (2)
2.62347|4.926325|2.772308|4.55539|4.407466|3.642138|4.408429|4.410117|3.652953|1.204583|1.095908|1.086253|1.086862

>  <MBIScharge>  (2)
-0.6299|0.7708|-0.6313|0.0358|0.1454|-0.4271|0.1211|0.0718|-0.3581|0.5036|0.1328|0.1304|0.1345

$$$$

     RDKit          3D

 24 25  0  0  0  0  0  0  0  0999 V2000
   -4.0462   -0.0046    0.1469 C   0  0  0  0  0  0  0  0  0  0  0  0
   -2.7643   -0.5541   -0.0932 O   0  0  0  0  0  0  0  0  0  0  0  0
   -1.7581    0.3209   -0.0515 C   0  0  0  0  0  0  0  0  0  0  0  0
   -1.9006    1.5998    0.1964 N   0  0  0  0  0  0  0  0  0  0  0  0
   -0.6526    2.1506    0.1534 O   0  0  0  0  0  0  0  0  0  0  0  0
    0.2450    1.1895   -0.1279 C   0  0  0  0  0  0  0  0  0  0  0  0
   -0.3873   -0.0106   -0.2711 C   0  0  0  0  0  0  0  0  0  0  0  0
    0.2180   -1.3352   -0.5743 C   0  0  0  0  0  0  0  0  0  0  0  0
    1.4366   -1.6249    0.3081 C   0  0  0  0  0  0  0  0  0  0  0  0
    2.5677   -0.7735   -0.0279 N   0  0  0  0  0  0  0  0  0  0  0  0
    2.5540    0.5492    0.5724 C   0  0  0  0  0  0  0  0  0  0  0  0
    1.6865    1.5292   -0.2277 C   0  0  0  0  0  0  0  0  0  0  0  0
   -4.2718    0.7759   -0.5831 H   0  0  0  0  0  0  0  0  0  0  0  0
   -4.7500   -0.8294    0.0542 H   0  0  0  0  0  0  0  0  0  0  0  0
   -4.0961    0.4306    1.1478 H   0  0  0  0  0  0  0  0  0  0  0  0
    0.5379   -1.3604   -1.6191 H   0  0  0  0  0  0  0  0  0  0  0  0
   -0.5359   -2.1082   -0.4217 H   0  0  0  0  0  0  0  0  0  0  0  0
    1.7392   -2.6608    0.1378 H   0  0  0  0  0  0  0  0  0  0  0  0
    1.1471   -1.5219    1.3687 H   0  0  0  0  0  0  0  0  0  0  0  0
    3.4253   -1.2458    0.2333 H   0  0  0  0  0  0  0  0  0  0  0  0
    2.1987    0.5259    1.6176 H   0  0  0  0  0  0  0  0  0  0  0  0
    3.5782    0.9293    0.5690 H   0  0  0  0  0  0  0  0  0  0  0  0
    1.9945    1.4836   -1.2751 H   0  0  0  0  0  0  0  0  0  0  0  0
    1.8342    2.5449    0.1400 H   0  0  0  0  0  0  0  0  0  0  0  0
  1  2  1  0
  2  3  1  0
  3  4  2  0
  4  5  1  0
  5  6  1  0
  6  7  2  0
  7  8  1  0
  8  9  1  0
  9 10  1  0
 10 11  1  0
 11 12  1  0
  7  3  1  0
 12  6  1  0
  1 13  1  0
  1 14  1  0
  1 15  1  0
  8 16  1  0
  8 17  1  0
  9 18  1  0
  9 19  1  0
 10 20  1  0
 11 21  1  0
 11 22  1  0
 12 23  1  0
 12 24  1  0
M  END
>  <CHEMBL_ID>  (3)
CHEMBL2331792

>  <CONF_ID>  (3)
conf_01

>  <GFN2:TOTAL_ENERGY>  (3)
-37.205552234552

>  <GFN2:ATOMIC_ENERGY>  (3)
-31.81502636146199

>  <GFN2:FORMATION_ENERGY>  (3)
-5.390525873090013

>  <GFN2:TOTAL_ENTHALPY>  (3)
-36.997227553615

>  <GFN2:TOTAL_FREE_ENERGY>  (3)
-37.04564684055

>  <GFN2:DIPOLE>  (3)
1.688|-1.855|0.541|2.566

>  <GFN2:QUADRUPOLE>  (3)
8.179|4.064|-7.02|2.878|-2.284|-1.159

>  <GFN2:ROT_CONSTANTS>  (3)
0.06387829|0.02213894|0.01718927

>  <GFN2:ENTHALPY>  (3)
5085.211|888.752|1481.254|7455.217

>  <GFN2:HEAT_CAPACITY>  (3)
35.756|2.981|4.968|43.705

>  <GFN2:ENTROPY>  (3)
30.083|30.575|41.249|101.907

>  <GFN2:HOMO_ENERGY>  (3)
-0.365093

>  <GFN2:LUMO_ENERGY>  (3)
-0.2254929

>  <GFN2:HOMO_LUMO_GAP>  (3)
0.1396002

>  <GFN2:FERMI_LEVEL>  (3)
-0.2952929

>  <GFN2:MULLIKEN_CHARGES>  (3)
0.02965580|-0.25998383|0.20982597|-0.20690232|-0.14289700|0.12366902|-0.05582380|-0.06173402|0.01737506|-0.25444710|0.01828911|-0.07266979|0.05743736|0.06541173|0.05648112|0.05630017|0.05105775|0.03321018|0.01188523|0.13646859|0.01616503|0.03788833|0.07173821|0.06159918

>  <GFN2:COVALENT_COORDINATION_NUMBER>  (3)
3.667|1.704|2.982|1.939|1.817|3.048|2.996|3.804|3.739|2.678|3.740|3.804|0.924|0.925|0.924|0.924|0.924|0.924|0.923|0.860|0.923|0.924|0.924|0.924

>  <GFN2:DISPERSION_COEFFICIENT_MOLECULAR>  (3)
5589.099016

>  <GFN2:DISPERSION_COEFFICIENT_ATOMIC>  (3)
20.327|18.308|23.564|26.318|16.441|25.244|29.375|21.683|20.359|26.610|20.343|21.887|2.229|2.137|2.241|2.243|2.307|2.541|2.860|1.497|2.793|2.477|2.067|2.180

>  <GFN2:POLARIZABILITY_MOLECULAR>  (3)
112.607826

>  <GFN2:POLARIZABILITY_ATOMIC>  (3)
6.465|5.777|7.963|7.607|5.476|8.240|8.891|6.629|6.438|7.661|6.435|6.660|2.335|2.286|2.341|2.342|2.375|2.493|2.645|1.916|2.613|2.461|2.248|2.309

>  <GFN2:WIBERG_BOND_ORDER>  (3)
0.967|1.096|1.509|1.059|1.141|1.549|1.019|0.993|1.014|1.019|0.988|1.200|1.017|0.978|0.982|0.978|0.960|0.973|0.977|0.965|0.960|0.964|0.976|0.953|0.971

>  <GFN2:TOTAL_WIBERG_BOND_ORDER>  (3)
3.932|2.253|3.936|2.897|2.412|3.927|3.974|3.997|3.988|3.073|3.989|3.994|0.997|0.995|0.997|0.997|0.997|0.998|1.000|0.981|1.000|0.998|0.995|0.996

>  <DFT:TOTAL_ENERGY>  (3)
-571.372302374656

>  <DFT:ATOMIC_ENERGY>  (3)
-567.4129012311862

>  <DFT:FORMATION_ENERGY>  (3)
-3.9594011434697904

>  <DFT:ESP_AT_NUCLEI>  (3)
-14.658698|-22.262797|-14.638117|-18.328623|-22.235109|-14.661384|-14.720026|-14.706276|-14.682207|-18.340776|-14.67545|-14.697653|-1.101749|-1.097245|-1.101783|-1.110573|-1.107676|-1.10768|-1.114996|-1.051183|-1.110018|-1.101523|-1.095806|-1.093751

>  <DFT:LOWDIN_CHARGES>  (3)
0.082349|-0.099809|0.018205|-0.11627|0.004943|0.037088|-0.129002|-0.033397|0.025904|-0.126577|0.028805|-0.04681|0.022728|0.025505|0.022276|0.037165|0.036918|0.022705|0.005165|0.062115|0.007028|0.025225|0.04526|0.042482

>  <DFT:MULLIKEN_CHARGES>  (3)
0.152309|-0.334686|0.173664|-0.101281|-0.212763|0.029812|-0.271363|0.154022|0.062286|-0.320972|0.05885|0.112543|0.04656|0.049269|0.0453|0.036442|0.03079|0.024431|0.008893|0.121415|0.013817|0.029342|0.051374|0.039947

>  <DFT:ROT_CONSTANTS>  (3)
0.061989677162423096|0.021776377586732603|0.016833349204359607

>  <DFT:DIPOLE>  (3)
1.7616007231555637|-1.9722125284256855|0.4915355782381861|2.6896963750162186

>  <DFT:XC_ENERGY>  (3)
-54.40007101716013

>  <DFT:NUCLEAR_REPULSION_ENERGY>  (3)
738.0291356034058

>  <DFT:ONE_ELECTRON_ENERGY>  (3)
-2240.528873274058

>  <DFT:TWO_ELECTRON_ENERGY>  (3)
985.5426786046526

>  <DFT:HOMO_ENERGY>  (3)
-0.3083879584374106

>  <DFT:LUMO_ENERGY>  (3)
0.07704378315929386

>  <DFT:HOMO_LUMO_GAP>  (3)
0.38543174159670446

>  <DFT:MAYER_BOND_ORDER>  (3)
0.919059|1.20007|1.601042|0.97249|1.14259|1.586375|1.027315|1.079028|1.04432|1.051295|1.071695|1.222806|1.075683|0.973351|0.980963|0.974496|0.913309|0.927201|0.953925|0.935969|0.951516|0.935916|0.952693|0.90996|0.916826

>  <DFT:WIBERG_LOWDIN_BOND_ORDER>  (3)
1.099419|1.326575|1.754216|1.232359|1.33654|1.571053|1.0335|1.0282|1.100397|1.106286|1.021913|1.208766|1.056728|0.965086|0.971893|0.965705|0.924278|0.926117|0.941258|0.931901|1.015108|0.931362|0.940248|0.918762|0.924739

>  <DFT:TOTAL_MAYER_BOND_ORDER>  (3)
3.888028|2.206689|4.137332|2.811287|2.302618|3.995918|4.001952|3.933175|4.085985|3.083671|4.088865|3.963132|0.998689|0.988281|0.997435|0.999913|0.995065|0.979081|0.983373|0.985695|0.982546|0.979146|1.000389|0.996811

>  <DFT:TOTAL_WIBERG_LOWDIN_BOND_ORDER>  (3)
4.125868|2.783901|4.768491|3.495966|2.976891|4.588179|4.415344|4.235081|4.310941|3.56059|4.3109|4.235769|1.097547|1.087431|1.096402|1.101727|1.10005|1.094293|1.105384|1.167501|1.104838|1.093415|1.100494|1.097314

>  <MBIScharge>  (3)
-0.0802|-0.3372|0.5419|-0.5013|-0.0983|0.3043|-0.2951|-0.1876|0.0365|-0.6497|0.0667|-0.3498|0.1068|0.1158|0.1052|0.1249|0.1284|0.0917|0.0585|0.3487|0.0588|0.0961|0.1586|0.1561

$$$$

     RDKit          3D

 24 24  0  0  0  0  0  0  0  0999 V2000
   -2.9333    1.3864    0.5689 N   0  0  0  0  0  0  0  0  0  0  0  0
   -1.7242    0.7511    0.0630 C   0  0  2  0  0  0  0  0  0  0  0  0
   -2.0569   -0.7160   -0.2315 C   0  0  0  0  0  0  0  0  0  0  0  0
   -1.1528   -1.4058   -1.6568 S   0  0  0  0  0  0  0  0  0  0  0  0
   -0.6348    0.8907    1.1412 C   0  0  0  0  0  0  0  0  0  0  0  0
    0.6660    0.2605    0.7383 C   0  0  0  0  0  0  0  0  0  0  0  0
    1.4908    0.8889   -0.1888 C   0  0  0  0  0  0  0  0  0  0  0  0
    2.6770    0.3027   -0.5911 C   0  0  0  0  0  0  0  0  0  0  0  0
    3.0591   -0.9217   -0.0686 C   0  0  0  0  0  0  0  0  0  0  0  0
    2.2514   -1.5520    0.8623 C   0  0  0  0  0  0  0  0  0  0  0  0
    1.0633   -0.9639    1.2627 C   0  0  0  0  0  0  0  0  0  0  0  0
   -3.6549    1.4014   -0.1436 H   0  0  0  0  0  0  0  0  0  0  0  0
   -2.7445    2.3454    0.8393 H   0  0  0  0  0  0  0  0  0  0  0  0
   -1.3583    1.2136   -0.8729 H   0  0  0  0  0  0  0  0  0  0  0  0
   -3.1065   -0.8045   -0.5116 H   0  0  0  0  0  0  0  0  0  0  0  0
   -1.8765   -1.3507    0.6336 H   0  0  0  0  0  0  0  0  0  0  0  0
    0.0495   -1.4274   -1.0904 H   0  0  0  0  0  0  0  0  0  0  0  0
   -0.4784    1.9567    1.3268 H   0  0  0  0  0  0  0  0  0  0  0  0
   -1.0132    0.4397    2.0598 H   0  0  0  0  0  0  0  0  0  0  0  0
    1.1993    1.8462   -0.5969 H   0  0  0  0  0  0  0  0  0  0  0  0
    3.3063    0.8028   -1.3124 H   0  0  0  0  0  0  0  0  0  0  0  0
    3.9852   -1.3799   -0.3817 H   0  0  0  0  0  0  0  0  0  0  0  0
    2.5462   -2.5039    1.2787 H   0  0  0  0  0  0  0  0  0  0  0  0
    0.4402   -1.4597    1.9939 H   0  0  0  0  0  0  0  0  0  0  0  0
  1  2  1  0
  2  3  1  0
  3  4  1  0
  2  5  1  0
  5  6  1  0
  6  7  2  0
  7  8  1  0
  8  9  2  0
  9 10  1  0
 10 11  2  0
 11  6  1  0
  1 12  1  0
  1 13  1  0
  2 14  1  6
  3 15  1  0
  3 16  1  0
  4 17  1  0
  5 18  1  0
  5 19  1  0
  7 20  1  0
  8 21  1  0
  9 22  1  0
 10 23  1  0
 11 24  1  0
M  END
>  <CHEMBL_ID>  (4)
CHEMBL34907

>  <CONF_ID>  (4)
conf_01

>  <GFN2:TOTAL_ENERGY>  (4)
-32.042296620927

>  <GFN2:ATOMIC_ENERGY>  (4)
-27.00722430513399

>  <GFN2:FORMATION_ENERGY>  (4)
-5.0350723157930055

>  <GFN2:TOTAL_ENTHALPY>  (4)
-31.833525248666

>  <GFN2:TOTAL_FREE_ENERGY>  (4)
-31.883791673934

>  <GFN2:DIPOLE>  (4)
0.491|1.942|1.428|2.461

>  <GFN2:QUADRUPOLE>  (4)
3.071|-5.719|3.487|-0.937|-6.135|-6.557

>  <GFN2:ROT_CONSTANTS>  (4)
0.04900893|0.02246949|0.01879329

>  <GFN2:ENTHALPY>  (4)
5535.487|888.752|1481.254|7905.493

>  <GFN2:HEAT_CAPACITY>  (4)
37.895|2.981|4.968|45.844

>  <GFN2:ENTROPY>  (4)
33.827|30.735|41.233|105.795

>  <GFN2:HOMO_ENERGY>  (4)
-0.3674392

>  <GFN2:LUMO_ENERGY>  (4)
-0.2289826

>  <GFN2:HOMO_LUMO_GAP>  (4)
0.1384566

>  <GFN2:FERMI_LEVEL>  (4)
-0.2982109

>  <GFN2:MULLIKEN_CHARGES>  (4)
-0.34914713|0.06508131|-0.00536182|-0.30011184|-0.06988332|0.01196938|-0.03656175|-0.02978879|-0.03343279|-0.03212729|-0.03982480|0.14130481|0.14257811|0.01383614|0.05932676|0.05186326|0.16320497|0.04108223|0.04938562|0.03064812|0.03266141|0.03171548|0.03189599|0.02968592

>  <GFN2:COVALENT_COORDINATION_NUMBER>  (4)
2.636|3.799|3.799|1.912|3.812|2.968|2.925|2.919|2.920|2.918|2.924|0.860|0.860|0.922|0.925|0.925|0.923|0.924|0.924|0.926|0.926|0.926|0.926|0.926

>  <GFN2:DISPERSION_COEFFICIENT_MOLECULAR>  (4)
6850.134733

>  <GFN2:DISPERSION_COEFFICIENT_ATOMIC>  (4)
28.994|19.493|20.677|154.059|21.828|27.745|28.910|28.744|28.833|28.801|28.990|1.462|1.453|2.829|2.207|2.297|1.306|2.435|2.328|2.577|2.549|2.562|2.559|2.591

>  <GFN2:POLARIZABILITY_MOLECULAR>  (4)
131.230591

>  <GFN2:POLARIZABILITY_ATOMIC>  (4)
7.997|6.286|6.474|20.891|6.650|8.640|8.817|8.792|8.805|8.801|8.830|1.894|1.888|2.631|2.323|2.370|1.787|2.440|2.386|2.510|2.497|2.503|2.502|2.517

>  <GFN2:WIBERG_BOND_ORDER>  (4)
1.013|0.992|1.000|0.976|1.013|1.406|1.450|1.435|1.441|1.440|1.410|0.964|0.963|0.959|0.970|0.974|0.954|0.966|0.973|0.969|0.971|0.971|0.971|0.969

>  <GFN2:TOTAL_WIBERG_BOND_ORDER>  (4)
3.002|3.984|3.974|2.017|3.995|3.989|3.992|3.992|3.992|3.992|3.992|0.979|0.980|1.000|0.996|0.997|0.973|0.998|0.997|0.999|0.999|0.998|0.999|0.999

>  <DFT:TOTAL_ENERGY>  (4)
-803.1816976679596

>  <DFT:ATOMIC_ENERGY>  (4)
-799.2096464795043

>  <DFT:FORMATION_ENERGY>  (4)
-3.972051188455339

>  <DFT:ESP_AT_NUCLEI>  (4)
-18.350475|-14.676847|-14.691428|-59.219238|-14.706158|-14.705722|-14.713954|-14.711803|-14.713126|-14.711232|-14.712726|-1.052375|-1.052547|-1.123168|-1.094732|-1.100221|-1.039695|-1.10355|-1.107821|-1.094844|-1.095566|-1.095978|-1.095098|-1.094168

>  <DFT:LOWDIN_CHARGES>  (4)
-0.122263|0.000901|-0.137934|0.129288|-0.027575|-0.032132|-0.029594|-0.02458|-0.035208|-0.027605|-0.04029|0.056622|0.054409|-0.000844|0.028803|0.023395|-0.023884|0.029054|0.030024|0.027551|0.031564|0.030816|0.031705|0.027774

>  <DFT:MULLIKEN_CHARGES>  (4)
-0.244522|-0.008527|-0.099576|-0.122473|0.10184|-0.08161|-0.021805|-0.005007|-0.015355|-0.005099|-0.052764|0.108051|0.104424|0.018904|0.065571|0.061887|0.093512|0.024148|0.023681|0.002139|0.015513|0.016437|0.015653|0.004976

>  <DFT:ROT_CONSTANTS>  (4)
0.04794365283069798|0.022414375314845424|0.01868085834477603

>  <DFT:DIPOLE>  (4)
0.39518820064796206|1.550171766890236|0.6146973951869068|1.7137850239877048

>  <DFT:XC_ENERGY>  (4)
-60.19179707934977

>  <DFT:NUCLEAR_REPULSION_ENERGY>  (4)
691.629682358347

>  <DFT:ONE_ELECTRON_ENERGY>  (4)
-2469.4895698491564

>  <DFT:TWO_ELECTRON_ENERGY>  (4)
1034.8876730127258

>  <DFT:HOMO_ENERGY>  (4)
-0.30183726569860786

>  <DFT:LUMO_ENERGY>  (4)
0.055304114150268015

>  <DFT:HOMO_LUMO_GAP>  (4)
0.3571413798488759

>  <DFT:MAYER_BOND_ORDER>  (4)
1.046153|0.970876|1.049233|1.04513|1.021491|1.387509|1.405459|1.385986|1.397448|1.383284|1.399306|0.962026|0.962946|0.94099|0.95652|0.946966|0.9489|0.93319|0.929727|0.994041|0.991697|0.993124|0.991845|0.996802

>  <DFT:WIBERG_LOWDIN_BOND_ORDER>  (4)
1.105076|1.024901|1.141493|1.002908|1.02315|1.41187|1.474485|1.456937|1.46751|1.458367|1.420758|1.03183|1.032844|0.918543|0.952562|0.953536|1.076764|0.924434|0.927377|0.929524|0.932281|0.933968|0.932376|0.929045

>  <DFT:TOTAL_MAYER_BOND_ORDER>  (4)
3.005832|4.058086|3.907235|2.055076|3.897974|3.908408|3.886353|3.867403|3.849361|3.859561|3.888729|0.995434|0.999967|1.000105|0.993572|0.995461|0.978192|0.989061|1.004225|0.992675|0.982891|0.983361|0.983007|0.992453

>  <DFT:TOTAL_WIBERG_LOWDIN_BOND_ORDER>  (4)
3.401954|4.479368|4.300503|2.449647|4.25254|4.465676|4.303955|4.296045|4.294328|4.298135|4.30868|1.161837|1.164266|1.123637|1.109655|1.112483|1.156163|1.101068|1.106859|1.093678|1.08831|1.088939|1.088485|1.095469

>  <MBIScharge>  (4)
-0.9483|0.2544|-0.2746|-0.3758|-0.3229|0.1113|-0.1970|-0.1323|-0.1605|-0.1387|-0.1901|0.3755|0.3740|0.0671|0.1816|0.1653|0.2154|0.1344|0.1416|0.1464|0.1422|0.1445|0.1434|0.1430

$$$$

     RDKit          3D

 16 16  0  0  0  0  0  0  0  0999 V2000
    2.0401    1.9534   -0.6976 O   0  0  0  0  0  0  0  0  0  0  0  0
    1.9075    0.8554   -0.2390 C   0  0  0  0  0  0  0  0  0  0  0  0
    2.9338    0.0928    0.1586 O   0  0  0  0  0  0  0  0  0  0  0  0
    0.6124    0.1252   -0.0826 C   0  0  0  0  0  0  0  0  0  0  0  0
    0.5421   -1.2383   -0.2420 C   0  0  0  0  0  0  0  0  0  0  0  0
   -0.7075   -1.8755   -0.1717 C   0  0  0  0  0  0  0  0  0  0  0  0
   -1.8309   -1.1359    0.0534 C   0  0  0  0  0  0  0  0  0  0  0  0
   -1.7619    0.2649    0.2340 C   0  0  0  0  0  0  0  0  0  0  0  0
   -3.0594    1.2623    0.5446 S   0  0  0  0  0  0  0  0  0  0  0  0
   -0.5081    0.8346    0.1526 N   0  0  0  0  0  0  0  0  0  0  0  0
   -0.4230    2.1723    0.3679 O   0  0  0  0  0  0  0  0  0  0  0  0
    3.7704    0.5681    0.0295 H   0  0  0  0  0  0  0  0  0  0  0  0
    1.4450   -1.7935   -0.4266 H   0  0  0  0  0  0  0  0  0  0  0  0
   -0.7695   -2.9446   -0.2995 H   0  0  0  0  0  0  0  0  0  0  0  0
   -2.8093   -1.5851    0.1111 H   0  0  0  0  0  0  0  0  0  0  0  0
   -1.3814    2.4441    0.5075 H   0  0  0  0  0  0  0  0  0  0  0  0
  1  2  2  0
  2  3  1  0
  2  4  1  0
  4  5  2  0
  5  6  1  0
  6  7  2  0
  7  8  1  0
  8  9  2  0
  8 10  1  0
 10 11  1  0
 10  4  1  0
  3 12  1  0
  5 13  1  0
  6 14  1  0
  7 15  1  0
 11 16  1  0
M  END
>  <CHEMBL_ID>  (5)
CHEMBL3617543

>  <CONF_ID>  (5)
conf_02

>  <GFN2:TOTAL_ENERGY>  (5)
-33.717933782865

>  <GFN2:ATOMIC_ENERGY>  (5)
-29.782293930679

>  <GFN2:FORMATION_ENERGY>  (5)
-3.9356398521860037

>  <GFN2:TOTAL_ENTHALPY>  (5)
-33.603640335687

>  <GFN2:TOTAL_FREE_ENERGY>  (5)
-33.650001975444

>  <GFN2:DIPOLE>  (5)
3.777|-4.420|-0.262|5.820

>  <GFN2:QUADRUPOLE>  (5)
-0.37|4.515|-2.158|3.418|2.971|2.528

>  <GFN2:ROT_CONSTANTS>  (5)
0.06050939|0.02472955|0.01795962

>  <GFN2:ENTHALPY>  (5)
4393.226|888.752|1481.254|6763.232

>  <GFN2:HEAT_CAPACITY>  (5)
30.755|2.981|4.968|38.704

>  <GFN2:ENTROPY>  (5)
25.800|30.475|41.301|97.576

>  <GFN2:HOMO_ENERGY>  (5)
-0.3638418

>  <GFN2:LUMO_ENERGY>  (5)
-0.3140915

>  <GFN2:HOMO_LUMO_GAP>  (5)
0.0497504

>  <GFN2:FERMI_LEVEL>  (5)
-0.3389666

>  <GFN2:MULLIKEN_CHARGES>  (5)
-0.36321303|0.36452924|-0.37087549|0.02916294|-0.04284723|-0.01934421|-0.03635207|0.09982080|-0.41671448|0.16368756|-0.32345934|0.34142642|0.07905327|0.06566472|0.08001573|0.34944517

>  <GFN2:COVALENT_COORDINATION_NUMBER>  (5)
0.856|2.694|1.660|2.906|2.920|2.916|2.956|2.896|1.144|2.832|1.721|0.804|0.926|0.926|0.926|0.851

>  <GFN2:DISPERSION_COEFFICIENT_MOLECULAR>  (5)
4476.475632

>  <GFN2:DISPERSION_COEFFICIENT_ATOMIC>  (5)
20.960|20.817|20.292|27.350|29.064|28.491|28.903|25.788|157.565|18.491|19.403|0.609|1.989|2.134|1.979|0.584

>  <GFN2:POLARIZABILITY_MOLECULAR>  (5)
105.670556

>  <GFN2:POLARIZABILITY_ATOMIC>  (5)
6.138|7.467|6.081|8.575|8.841|8.753|8.818|8.326|21.225|6.387|5.947|1.225|2.205|2.284|2.200|1.197

>  <GFN2:WIBERG_BOND_ORDER>  (5)
1.779|1.128|0.975|1.471|1.309|1.564|1.249|1.426|1.145|1.032|1.242|0.859|0.963|0.966|0.964|0.784

>  <GFN2:TOTAL_WIBERG_BOND_ORDER>  (5)
2.081|3.931|2.203|3.963|3.984|3.989|3.988|3.952|1.905|3.698|2.036|0.883|0.993|0.995|0.993|0.878

>  <DFT:TOTAL_ENERGY>  (5)
-909.5440747524951

>  <DFT:ATOMIC_ENERGY>  (5)
-906.7254443275003

>  <DFT:FORMATION_ENERGY>  (5)
-2.818630424994808

>  <DFT:ESP_AT_NUCLEI>  (5)
-22.299171|-14.548941|-22.231281|-14.616966|-14.671305|-14.668566|-14.678788|-14.620223|-59.245626|-18.173772|-22.249149|-0.918576|-1.053789|-1.057188|-1.065213|-0.951534

>  <DFT:LOWDIN_CHARGES>  (5)
-0.143706|0.082723|-0.035104|-0.007552|-0.039529|0.006616|-0.032993|-0.130021|-0.101318|0.166888|-0.049515|0.110927|0.046024|0.043867|0.048283|0.034412

>  <DFT:MULLIKEN_CHARGES>  (5)
-0.18023|0.213856|-0.202998|0.053266|-0.047116|0.059692|-0.003385|0.043114|-0.287316|-0.029571|-0.152976|0.211717|0.045778|0.041922|0.042796|0.191451

>  <DFT:ROT_CONSTANTS>  (5)
0.05366767869895564|0.024217625884193014|0.01705250121029076

>  <DFT:DIPOLE>  (5)
3.5311876664016317|-4.029393175419512|-0.2555285323906471|5.36382238038603

>  <DFT:XC_ENERGY>  (5)
-65.35660117348944

>  <DFT:NUCLEAR_REPULSION_ENERGY>  (5)
687.343886332468

>  <DFT:ONE_ELECTRON_ENERGY>  (5)
-2611.458023983051

>  <DFT:TWO_ELECTRON_ENERGY>  (5)
1079.93391150838

>  <DFT:HOMO_ENERGY>  (5)
-0.2882028678139002

>  <DFT:LUMO_ENERGY>  (5)
-0.020944402860718702

>  <DFT:HOMO_LUMO_GAP>  (5)
0.2672584649531815

>  <DFT:MAYER_BOND_ORDER>  (5)
2.154049|1.25756|0.893837|1.509744|1.273108|1.536997|1.244968|1.433331|1.110859|1.049261|1.22197|0.937974|0.97239|0.98103|0.977351|0.842848

>  <DFT:WIBERG_LOWDIN_BOND_ORDER>  (5)
2.279376|1.374162|1.004974|1.516157|1.330924|1.59401|1.293801|1.653562|1.238745|1.209878|1.305567|1.074726|0.924345|0.927222|0.923943|1.004048

>  <DFT:TOTAL_MAYER_BOND_ORDER>  (5)
2.300331|4.36066|2.253953|3.727754|3.923312|3.872955|3.913185|3.893165|1.9104|3.585405|2.048091|1.00975|1.007683|0.985804|1.008212|1.088281

>  <DFT:TOTAL_WIBERG_LOWDIN_BOND_ORDER>  (5)
2.666828|4.926006|2.755243|4.476138|4.28669|4.292283|4.303935|4.626671|2.437092|4.304926|2.569268|1.201049|1.098754|1.083783|1.091944|1.368195

>  <MBIScharge>  (5)
-0.5933|0.7849|-0.6431|-0.0155|-0.1768|-0.0865|-0.1341|0.1486|-0.5892|0.2271|-0.4237|0.5089|0.1902|0.1670|0.1882|0.4471

$$$$

     RDKit          3D

 27 28  0  0  0  0  0  0  0  0999 V2000
    3.7036    1.4905   -0.6226 C   0  0  0  0  0  0  0  0  0  0  0  0
    2.7908    0.3297   -0.3625 C   0  0  0  0  0  0  0  0  0  0  0  0
    3.2719   -0.9732   -0.3986 C   0  0  0  0  0  0  0  0  0  0  0  0
    2.4360   -2.0425   -0.1222 C   0  0  0  0  0  0  0  0  0  0  0  0
    1.1080   -1.8259    0.1875 C   0  0  0  0  0  0  0  0  0  0  0  0
    0.6051   -0.5270    0.2176 C   0  0  0  0  0  0  0  0  0  0  0  0
   -0.8035   -0.3183    0.5404 C   0  0  0  0  0  0  0  0  0  0  0  0
   -1.5207   -1.1868    1.1441 N   0  0  0  0  0  0  0  0  0  0  0  0
   -2.8504   -0.6455    1.2986 C   0  0  0  0  0  0  0  0  0  0  0  0
   -2.8621    0.6947    0.5138 C   0  0  2  0  0  0  0  0  0  0  0  0
   -3.6802    0.6166   -0.7731 C   0  0  0  0  0  0  0  0  0  0  0  0
   -1.4413    0.8720    0.2553 N   0  0  0  0  0  0  0  0  0  0  0  0
    1.4539    0.5412   -0.0557 C   0  0  0  0  0  0  0  0  0  0  0  0
    4.1178    1.8538    0.3186 H   0  0  0  0  0  0  0  0  0  0  0  0
    4.5314    1.1979   -1.2642 H   0  0  0  0  0  0  0  0  0  0  0  0
    3.1664    2.3124   -1.0913 H   0  0  0  0  0  0  0  0  0  0  0  0
    4.3103   -1.1499   -0.6409 H   0  0  0  0  0  0  0  0  0  0  0  0
    2.8263   -3.0494   -0.1501 H   0  0  0  0  0  0  0  0  0  0  0  0
    0.4392   -2.6414    0.4108 H   0  0  0  0  0  0  0  0  0  0  0  0
   -3.0495   -0.4947    2.3631 H   0  0  0  0  0  0  0  0  0  0  0  0
   -3.5824   -1.3614    0.9157 H   0  0  0  0  0  0  0  0  0  0  0  0
   -3.2269    1.5232    1.1321 H   0  0  0  0  0  0  0  0  0  0  0  0
   -3.3263   -0.2070   -1.3910 H   0  0  0  0  0  0  0  0  0  0  0  0
   -4.7287    0.4516   -0.5378 H   0  0  0  0  0  0  0  0  0  0  0  0
   -3.5953    1.5427   -1.3399 H   0  0  0  0  0  0  0  0  0  0  0  0
   -1.1594    1.4266   -0.5366 H   0  0  0  0  0  0  0  0  0  0  0  0
    1.0783    1.5538   -0.0073 H   0  0  0  0  0  0  0  0  0  0  0  0
  1  2  1  0
  2  3  2  0
  3  4  1  0
  4  5  2  0
  5  6  1  0
  6  7  1  0
  7  8  2  0
  8  9  1  0
  9 10  1  0
 10 11  1  0
 10 12  1  0
  6 13  2  0
 13  2  1  0
 12  7  1  0
  1 14  1  0
  1 15  1  0
  1 16  1  0
  3 17  1  0
  4 18  1  0
  5 19  1  0
  9 20  1  0
  9 21  1  0
 10 22  1  1
 11 23  1  0
 11 24  1  0
 11 25  1  0
 12 26  1  0
 13 27  1  0
M  END
>  <CHEMBL_ID>  (6)
CHEMBL275774

>  <CONF_ID>  (6)
conf_02

>  <GFN2:TOTAL_ENERGY>  (6)
-36.543949887501

>  <GFN2:ATOMIC_ENERGY>  (6)
-30.44666710267699

>  <GFN2:FORMATION_ENERGY>  (6)
-6.09728278482401

>  <GFN2:TOTAL_ENTHALPY>  (6)
-36.305829998827

>  <GFN2:TOTAL_FREE_ENERGY>  (6)
-36.357979114737

>  <GFN2:DIPOLE>  (6)
0.160|2.478|-2.023|3.204

>  <GFN2:QUADRUPOLE>  (6)
7.485|-2.741|-2.558|0.988|1.629|-4.927

>  <GFN2:ROT_CONSTANTS>  (6)
0.06199021|0.01466925|0.01263957

>  <GFN2:ENTHALPY>  (6)
6093.028|888.752|1481.254|8463.034

>  <GFN2:HEAT_CAPACITY>  (6)
41.582|2.981|4.968|49.531

>  <GFN2:ENTROPY>  (6)
37.084|31.319|41.354|109.757

>  <GFN2:HOMO_ENERGY>  (6)
-0.3574719

>  <GFN2:LUMO_ENERGY>  (6)
-0.2446263

>  <GFN2:HOMO_LUMO_GAP>  (6)
0.1128456

>  <GFN2:FERMI_LEVEL>  (6)
-0.3010491

>  <GFN2:MULLIKEN_CHARGES>  (6)
-0.10919142|0.01747534|-0.03867659|-0.02927992|-0.03164077|-0.00218670|0.16090126|-0.30852458|0.01838068|0.04545155|-0.11104931|-0.21423105|-0.04420717|0.04870862|0.04318294|0.04166614|0.03190066|0.03427527|0.05517333|0.03514471|0.03721947|0.02492231|0.04156398|0.04085931|0.03389776|0.14744713|0.03081704

>  <GFN2:COVALENT_COORDINATION_NUMBER>  (6)
3.758|2.965|2.925|2.917|2.926|2.976|3.002|1.854|3.882|3.843|3.752|2.724|2.929|0.924|0.925|0.925|0.926|0.926|0.926|0.924|0.924|0.924|0.925|0.925|0.925|0.860|0.926

>  <GFN2:DISPERSION_COEFFICIENT_MOLECULAR>  (6)
7641.964553

>  <GFN2:DISPERSION_COEFFICIENT_ATOMIC>  (6)
22.639|27.617|28.962|28.732|28.789|28.076|24.514|28.847|20.217|19.783|22.684|25.665|29.098|2.336|2.407|2.427|2.559|2.526|2.256|2.515|2.486|2.660|2.428|2.437|2.532|1.418|2.575

>  <GFN2:POLARIZABILITY_MOLECULAR>  (6)
136.300088

>  <GFN2:POLARIZABILITY_ATOMIC>  (6)
6.784|8.620|8.825|8.790|8.799|8.692|8.122|7.961|6.393|6.327|6.792|7.524|8.846|2.390|2.426|2.436|2.502|2.486|2.349|2.480|2.466|2.551|2.437|2.441|2.488|1.866|2.509

>  <GFN2:WIBERG_BOND_ORDER>  (6)
1.025|1.408|1.435|1.456|1.378|1.048|1.678|1.029|0.971|1.004|0.990|1.394|1.420|1.145|0.968|0.983|0.982|0.970|0.970|0.967|0.965|0.966|0.966|0.987|0.984|0.985|0.945|0.966

>  <GFN2:TOTAL_WIBERG_BOND_ORDER>  (6)
3.996|3.989|3.990|3.992|3.990|3.989|3.965|3.013|3.991|3.974|3.996|3.326|3.990|0.998|0.998|0.998|0.999|0.998|0.996|0.998|0.996|0.999|0.998|0.998|0.999|0.978|0.999

>  <DFT:TOTAL_ENERGY>  (6)
-536.5529753998791

>  <DFT:ATOMIC_ENERGY>  (6)
-531.8588263387201

>  <DFT:FORMATION_ENERGY>  (6)
-4.69414906115901

>  <DFT:ESP_AT_NUCLEI>  (6)
-14.709312|-14.709846|-14.718743|-14.718505|-14.722661|-14.711124|-14.663458|-18.388497|-14.69867|-14.674828|-14.713338|-18.321687|-14.715026|-1.101274|-1.103162|-1.102612|-1.099046|-1.101727|-1.109534|-1.118919|-1.117012|-1.11686|-1.104948|-1.102111|-1.103102|-1.018655|-1.093218

>  <DFT:LOWDIN_CHARGES>  (6)
-0.050369|-0.029786|-0.029277|-0.02461|-0.000311|-0.042801|0.038387|-0.177242|0.019502|0.011905|-0.067453|-0.055842|-0.029224|0.040888|0.032314|0.031558|0.027129|0.031347|0.036409|0.02473|0.02149|0.018566|0.028297|0.030604|0.02341|0.067693|0.022688

>  <DFT:MULLIKEN_CHARGES>  (6)
0.042957|-0.085439|-0.029858|0.003264|-0.014187|0.051554|0.057071|-0.257823|0.15953|-0.071859|-0.006795|-0.246709|-0.069879|0.05664|0.035109|0.034026|-0.001719|0.01303|0.020074|0.035486|0.024105|0.028947|0.037118|0.040356|0.032643|0.128764|-0.016407

>  <DFT:ROT_CONSTANTS>  (6)
0.05991049162399282|0.014642460457416085|0.012553527120371678

>  <DFT:DIPOLE>  (6)
-0.07838810180489404|2.2187542345656897|-1.6937974318754783|2.7924836236110173

>  <DFT:XC_ENERGY>  (6)
-53.99615122709524

>  <DFT:NUCLEAR_REPULSION_ENERGY>  (6)
756.1954304363533

>  <DFT:ONE_ELECTRON_ENERGY>  (6)
-2224.287471081023

>  <DFT:TWO_ELECTRON_ENERGY>  (6)
985.5518641681114

>  <DFT:HOMO_ENERGY>  (6)
-0.28737116414864206

>  <DFT:LUMO_ENERGY>  (6)
0.03668655426290703

>  <DFT:HOMO_LUMO_GAP>  (6)
0.32405771841154907

>  <DFT:MAYER_BOND_ORDER>  (6)
1.040054|1.411687|1.375914|1.376756|1.400971|0.976432|1.914625|1.047832|1.022821|1.06334|0.993461|1.36225|1.387941|1.147082|0.95749|0.964727|0.965315|0.993914|0.991341|0.995503|0.939776|0.952155|0.937551|0.965201|0.967231|0.968215|0.924128|0.992086

>  <DFT:WIBERG_LOWDIN_BOND_ORDER>  (6)
1.044699|1.427606|1.455091|1.480385|1.387913|1.056516|1.900265|1.138481|0.986968|1.04883|1.048707|1.410124|1.425649|1.230965|0.948107|0.954387|0.954422|0.930578|0.931139|0.924102|0.938315|0.940474|0.929235|0.959415|0.955763|0.958877|0.998794|0.925421

>  <DFT:TOTAL_MAYER_BOND_ORDER>  (6)
3.902167|3.979968|3.87793|3.821577|3.88619|3.753772|4.109443|3.124755|3.977013|4.104771|3.948916|3.145033|3.860267|0.989029|0.995969|0.994775|0.991411|0.983307|1.014973|0.980742|0.994083|0.975118|0.996881|0.991726|0.988991|0.997185|1.007731

>  <DFT:TOTAL_WIBERG_LOWDIN_BOND_ORDER>  (6)
4.088652|4.454227|4.297444|4.29589|4.293323|4.440451|4.69635|3.576588|4.31665|4.427239|4.108113|3.73439|4.297291|1.090622|1.093979|1.093986|1.092218|1.088355|1.105455|1.09541|1.097428|1.098196|1.096283|1.094904|1.096091|1.164838|1.104439

>  <MBIScharge>  (6)
-0.4354|0.1245|-0.1835|-0.1462|-0.1322|-0.0880|0.5847|-0.6799|0.0182|0.1734|-0.4923|-0.6440|-0.1953|0.1462|0.1438|0.1422|0.1455|0.1460|0.1511|0.0868|0.0956|0.0760|0.1487|0.1469|0.1375|0.3823|0.1474

$$$$

     RDKit          3D

 20 20  0  0  0  0  0  0  0  0999 V2000
    1.8617    0.1459   -0.8119 C   0  0  0  0  0  0  0  0  0  0  0  0
    1.2550   -0.1192    0.5640 C   0  0  2  0  0  0  0  0  0  0  0  0
    0.2758   -1.2952    0.5441 C   0  0  0  0  0  0  0  0  0  0  0  0
   -0.9143   -0.9836   -0.3606 C   0  0  0  0  0  0  0  0  0  0  0  0
   -1.3815    0.4416   -0.1608 C   0  0  0  0  0  0  0  0  0  0  0  0
   -2.5487    0.7586   -0.8130 N   0  0  0  0  0  0  0  0  0  0  0  0
   -0.7749    1.3573    0.4681 N   0  0  0  0  0  0  0  0  0  0  0  0
    0.5049    1.1180    1.0776 C   0  0  0  0  0  0  0  0  0  0  0  0
    2.2765   -0.7688   -1.2320 H   0  0  0  0  0  0  0  0  0  0  0  0
    1.1115    0.5382   -1.4940 H   0  0  0  0  0  0  0  0  0  0  0  0
    2.6608    0.8801   -0.7325 H   0  0  0  0  0  0  0  0  0  0  0  0
    2.0656   -0.3501    1.2640 H   0  0  0  0  0  0  0  0  0  0  0  0
    0.7771   -2.2056    0.2072 H   0  0  0  0  0  0  0  0  0  0  0  0
   -0.0816   -1.4675    1.5629 H   0  0  0  0  0  0  0  0  0  0  0  0
   -0.6406   -1.1098   -1.4115 H   0  0  0  0  0  0  0  0  0  0  0  0
   -1.7397   -1.6699   -0.1526 H   0  0  0  0  0  0  0  0  0  0  0  0
   -3.2210    0.0218   -0.9498 H   0  0  0  0  0  0  0  0  0  0  0  0
   -2.9322    1.6584   -0.5702 H   0  0  0  0  0  0  0  0  0  0  0  0
    1.1051    2.0198    0.9157 H   0  0  0  0  0  0  0  0  0  0  0  0
    0.3403    1.0303    2.1593 H   0  0  0  0  0  0  0  0  0  0  0  0
  1  2  1  0
  2  3  1  0
  3  4  1  0
  4  5  1  0
  5  6  1  0
  5  7  2  0
  7  8  1  0
  8  2  1  0
  1  9  1  0
  1 10  1  0
  1 11  1  0
  2 12  1  1
  3 13  1  0
  3 14  1  0
  4 15  1  0
  4 16  1  0
  6 17  1  0
  6 18  1  0
  8 19  1  0
  8 20  1  0
M  END
>  <CHEMBL_ID>  (7)
CHEMBL269330

>  <CONF_ID>  (7)
conf_02

>  <GFN2:TOTAL_ENERGY>  (7)
-24.817859810572

>  <GFN2:ATOMIC_ENERGY>  (7)
-20.693219717979996

>  <GFN2:FORMATION_ENERGY>  (7)
-4.124640092592003

>  <GFN2:TOTAL_ENTHALPY>  (7)
-24.63271475567

>  <GFN2:TOTAL_FREE_ENERGY>  (7)
-24.673824905819

>  <GFN2:DIPOLE>  (7)
-1.243|-1.972|-0.394|2.364

>  <GFN2:QUADRUPOLE>  (7)
7.235|1.764|-4.752|1.63|-0.347|-2.483

>  <GFN2:ROT_CONSTANTS>  (7)
0.1128827|0.05703796|0.04892232

>  <GFN2:ENTHALPY>  (7)
3339.506|888.752|1481.254|5709.512

>  <GFN2:HEAT_CAPACITY>  (7)
25.903|2.981|4.968|33.852

>  <GFN2:ENTROPY>  (7)
18.452|28.029|40.042|86.524

>  <GFN2:HOMO_ENERGY>  (7)
-0.3445966

>  <GFN2:LUMO_ENERGY>  (7)
-0.1854872

>  <GFN2:HOMO_LUMO_GAP>  (7)
0.1591094

>  <GFN2:FERMI_LEVEL>  (7)
-0.2650419

>  <GFN2:MULLIKEN_CHARGES>  (7)
-0.10266863|-0.02056699|-0.05072647|-0.07363174|0.16743346|-0.28550939|-0.30753335|0.02050632|0.03047142|0.04054592|0.03222635|0.02043617|0.02504922|0.02793799|0.04597564|0.02852252|0.16225679|0.17629781|0.03591052|0.02706645

>  <GFN2:COVALENT_COORDINATION_NUMBER>  (7)
3.754|3.852|3.809|3.808|2.829|2.652|1.838|3.766|0.925|0.925|0.925|0.924|0.924|0.924|0.924|0.924|0.860|0.860|0.924|0.924

>  <GFN2:DISPERSION_COEFFICIENT_MOLECULAR>  (7)
3234.101591

>  <GFN2:DISPERSION_COEFFICIENT_ATOMIC>  (7)
22.518|20.905|21.477|21.901|24.387|27.368|28.818|20.267|2.580|2.442|2.555|2.727|2.658|2.616|2.371|2.608|1.321|1.235|2.504|2.629

>  <GFN2:POLARIZABILITY_MOLECULAR>  (7)
85.362782

>  <GFN2:POLARIZABILITY_ATOMIC>  (7)
6.766|6.503|6.597|6.662|8.092|7.770|7.956|6.416|2.512|2.444|2.500|2.582|2.550|2.529|2.408|2.525|1.800|1.741|2.475|2.536

>  <GFN2:WIBERG_BOND_ORDER>  (7)
1.010|0.997|1.007|0.977|1.171|1.747|1.026|0.983|0.986|0.986|0.987|0.969|0.977|0.979|0.960|0.967|0.953|0.949|0.965|0.960

>  <GFN2:TOTAL_WIBERG_BOND_ORDER>  (7)
3.997|3.996|3.998|3.998|3.965|3.263|3.044|3.991|0.999|0.998|0.999|1.000|0.999|0.999|0.998|0.999|0.974|0.969|0.999|0.999

>  <DFT:TOTAL_ENERGY>  (7)
-345.02179844044434

>  <DFT:ATOMIC_ENERGY>  (7)
-341.86334332025297

>  <DFT:FORMATION_ENERGY>  (7)
-3.158455120191377

>  <DFT:ESP_AT_NUCLEI>  (7)
-14.726284|-14.713985|-14.712655|-14.705476|-14.661827|-18.332854|-18.392427|-14.704355|-1.11927|-1.119843|-1.120267|-1.126524|-1.117218|-1.118602|-1.101128|-1.098335|-1.027752|-1.035083|-1.133946|-1.128935

>  <DFT:LOWDIN_CHARGES>  (7)
-0.057047|-0.058952|-0.031915|-0.058389|0.025459|-0.042038|-0.184774|0.016144|0.021925|0.025255|0.026701|0.023769|0.023041|0.024636|0.036814|0.031132|0.067035|0.072689|0.019165|0.019351

>  <DFT:MULLIKEN_CHARGES>  (7)
-0.001289|-0.222289|0.019696|-0.015585|-0.102611|-0.134633|-0.241118|0.167548|0.023821|0.036982|0.031267|0.021331|0.020166|0.024787|0.053242|0.033946|0.118528|0.128081|0.018196|0.019934

>  <DFT:ROT_CONSTANTS>  (7)
0.11098663372231127|0.0557215516306246|0.04764847052980996

>  <DFT:DIPOLE>  (7)
-0.8920332822764458|-1.9887098954064757|-0.2486045861863278|2.193739880899602

>  <DFT:XC_ENERGY>  (7)
-34.8000101062777

>  <DFT:NUCLEAR_REPULSION_ENERGY>  (7)
398.48976662955914

>  <DFT:ONE_ELECTRON_ENERGY>  (7)
-1255.3763792913223

>  <DFT:TWO_ELECTRON_ENERGY>  (7)
546.6779962419308

>  <DFT:HOMO_ENERGY>  (7)
-0.29710046100850285

>  <DFT:LUMO_ENERGY>  (7)
0.11229725123495432

>  <DFT:HOMO_LUMO_GAP>  (7)
0.40939771224345717

>  <DFT:MAYER_BOND_ORDER>  (7)
1.041747|1.04358|1.063653|0.984015|1.202443|1.927526|1.034929|1.014774|0.97202|0.968698|0.969701|0.932415|0.945782|0.951991|0.932057|0.933963|0.950357|0.944616|0.954195|0.943677

>  <DFT:WIBERG_LOWDIN_BOND_ORDER>  (7)
1.032888|1.016419|1.0254|1.01211|1.279547|1.966329|1.138106|1.010124|0.958954|0.957504|0.957801|0.917127|0.936395|0.936263|0.92672|0.929644|1.019055|1.008086|0.933617|0.931376

>  <DFT:TOTAL_MAYER_BOND_ORDER>  (7)
3.938204|4.105456|4.011054|3.942397|4.276569|3.147311|3.120078|3.971472|0.990259|1.001451|0.990165|0.97136|0.981377|0.980386|0.990233|0.988729|1.001704|1.021132|0.987627|0.983581

>  <DFT:TOTAL_WIBERG_LOWDIN_BOND_ORDER>  (7)
4.101239|4.403161|4.249139|4.231423|4.701222|3.593143|3.609861|4.333321|1.09612|1.10416|1.095447|1.101259|1.098371|1.097904|1.104282|1.100508|1.155175|1.160936|1.097532|1.097265

>  <MBIScharge>  (7)
-0.4099|-0.0962|-0.1792|-0.3781|0.6847|-0.9473|-0.7166|0.0724|0.1226|0.1413|0.1236|0.1036|0.1062|0.1055|0.1509|0.1431|0.4087|0.4128|0.0807|0.0712

$$$$

     RDKit          3D

 24 24  0  0  0  0  0  0  0  0999 V2000
   -2.9588   -0.5323    0.5207 C   0  0  0  0  0  0  0  0  0  0  0  0
   -1.8161    0.6698   -0.2566 P   0  0  1  0  0  5  0  0  0  0  0  0
   -2.0771    0.9580   -1.6733 O   0  0  0  0  0  0  0  0  0  0  0  0
   -2.0161    1.9950    0.6508 O   0  0  0  0  0  0  0  0  0  0  0  0
   -0.1020    0.1220    0.1324 C   0  0  0  0  0  0  0  0  0  0  0  0
    0.8653    1.1452   -0.4459 C   0  0  0  0  0  0  0  0  0  0  0  0
    2.3057    0.7627   -0.0819 C   0  0  0  0  0  0  0  0  0  0  0  0
    2.3871   -0.6656    0.1846 N   0  0  0  0  0  0  0  0  0  0  0  0
    1.6382   -1.4405   -0.7862 C   0  0  0  0  0  0  0  0  0  0  0  0
    0.1381   -1.2441   -0.5102 C   0  0  0  0  0  0  0  0  0  0  0  0
   -2.8271   -1.5066    0.0604 H   0  0  0  0  0  0  0  0  0  0  0  0
   -2.7795   -0.5937    1.5884 H   0  0  0  0  0  0  0  0  0  0  0  0
   -3.9732   -0.1865    0.3352 H   0  0  0  0  0  0  0  0  0  0  0  0
   -2.2689    2.7083    0.0609 H   0  0  0  0  0  0  0  0  0  0  0  0
    0.0308    0.0687    1.2140 H   0  0  0  0  0  0  0  0  0  0  0  0
    0.6347    2.1417   -0.0647 H   0  0  0  0  0  0  0  0  0  0  0  0
    0.7299    1.1647   -1.5292 H   0  0  0  0  0  0  0  0  0  0  0  0
    2.9803    1.0794   -0.8960 H   0  0  0  0  0  0  0  0  0  0  0  0
    2.6168    1.2780    0.8320 H   0  0  0  0  0  0  0  0  0  0  0  0
    3.3576   -0.9577    0.2132 H   0  0  0  0  0  0  0  0  0  0  0  0
    1.9047   -2.4936   -0.6755 H   0  0  0  0  0  0  0  0  0  0  0  0
    1.8723   -1.1413   -1.8222 H   0  0  0  0  0  0  0  0  0  0  0  0
   -0.4194   -1.3020   -1.4483 H   0  0  0  0  0  0  0  0  0  0  0  0
   -0.2234   -2.0299    0.1544 H   0  0  0  0  0  0  0  0  0  0  0  0
  1  2  1  0
  2  3  2  0
  2  4  1  1
  2  5  1  0
  5  6  1  0
  6  7  1  0
  7  8  1  0
  8  9  1  0
  9 10  1  0
 10  5  1  0
  1 11  1  0
  1 12  1  0
  1 13  1  0
  4 14  1  0
  5 15  1  0
  6 16  1  0
  6 17  1  0
  7 18  1  0
  7 19  1  0
  8 20  1  0
  9 21  1  0
  9 22  1  0
 10 23  1  0
 10 24  1  0
M  END
>  <CHEMBL_ID>  (8)
CHEMBL41905

>  <CONF_ID>  (8)
conf_00

>  <GFN2:TOTAL_ENERGY>  (8)
-33.65246518332

>  <GFN2:ATOMIC_ENERGY>  (8)
-28.78375378005699

>  <GFN2:FORMATION_ENERGY>  (8)
-4.868711403263006

>  <GFN2:TOTAL_ENTHALPY>  (8)
-33.439117082472

>  <GFN2:TOTAL_FREE_ENERGY>  (8)
-33.489261964777

>  <GFN2:DIPOLE>  (8)
1.189|-0.745|1.771|2.261

>  <GFN2:QUADRUPOLE>  (8)
5.119|1.223|5.214|-9.494|1.877|-10.333

>  <GFN2:ROT_CONSTANTS>  (8)
0.0725063|0.02470197|0.02201838

>  <GFN2:ENTHALPY>  (8)
5660.649|888.752|1481.254|8030.655

>  <GFN2:HEAT_CAPACITY>  (8)
37.824|2.981|4.968|45.773

>  <GFN2:ENTROPY>  (8)
34.286|30.094|41.159|105.539

>  <GFN2:HOMO_ENERGY>  (8)
-0.3561686

>  <GFN2:LUMO_ENERGY>  (8)
-0.0863073

>  <GFN2:HOMO_LUMO_GAP>  (8)
0.2698613

>  <GFN2:FERMI_LEVEL>  (8)
-0.2212379

>  <GFN2:MULLIKEN_CHARGES>  (8)
-0.12224441|0.25366173|-0.42285612|-0.37904525|-0.02124474|-0.05451494|0.01765112|-0.25498778|0.02032122|-0.06053638|0.06925270|0.07297480|0.07756098|0.34603857|0.06251421|0.04068379|0.05238872|0.00790556|0.03415439|0.13080294|0.03174235|0.01265029|0.04843480|0.03669144

>  <GFN2:COVALENT_COORDINATION_NUMBER>  (8)
3.701|3.807|0.808|1.613|3.807|3.925|3.747|2.682|3.747|3.911|0.927|0.926|0.927|0.913|0.926|0.924|0.924|0.923|0.924|0.860|0.924|0.923|0.924|0.924

>  <GFN2:DISPERSION_COEFFICIENT_MOLECULAR>  (8)
5548.852213

>  <GFN2:DISPERSION_COEFFICIENT_ATOMIC>  (8)
23.014|149.455|22.166|20.470|20.948|21.487|20.343|26.622|20.298|21.601|2.093|2.053|2.004|0.588|2.170|2.440|2.290|2.925|2.528|1.539|2.562|2.848|2.340|2.493

>  <GFN2:POLARIZABILITY_MOLECULAR>  (8)
113.606948

>  <GFN2:POLARIZABILITY_ATOMIC>  (8)
6.860|21.961|6.311|6.107|6.515|6.588|6.433|7.663|6.426|6.606|2.263|2.241|2.214|1.199|2.303|2.443|2.367|2.675|2.487|1.943|2.503|2.639|2.392|2.469

>  <GFN2:WIBERG_BOND_ORDER>  (8)
0.970|1.982|1.264|0.902|0.990|0.998|1.014|1.017|0.995|0.989|0.960|0.963|0.953|0.845|0.950|0.969|0.972|0.969|0.976|0.960|0.978|0.969|0.968|0.979

>  <GFN2:TOTAL_WIBERG_BOND_ORDER>  (8)
3.993|5.340|2.191|2.262|3.996|3.996|3.987|3.063|3.989|3.997|0.995|0.995|0.994|0.880|0.996|0.998|0.997|1.000|0.999|0.983|0.999|1.000|0.998|0.999

>  <DFT:TOTAL_ENERGY>  (8)
-783.1041485894356

>  <DFT:ATOMIC_ENERGY>  (8)
-779.4386906230806

>  <DFT:FORMATION_ENERGY>  (8)
-3.6654579663550066

>  <DFT:ESP_AT_NUCLEI>  (8)
-14.708304|-54.042364|-22.376514|-22.287793|-14.705452|-14.70941|-14.687329|-18.349365|-14.686497|-14.709184|-1.081057|-1.081262|-1.081805|-0.956218|-1.102291|-1.111234|-1.116418|-1.12118|-1.120966|-1.057191|-1.110574|-1.12262|-1.111641|-1.112689

>  <DFT:LOWDIN_CHARGES>  (8)
-0.223281|0.898344|-0.512742|-0.241226|-0.181493|-0.050974|0.02313|-0.130369|0.022447|-0.050388|0.038466|0.037554|0.043339|0.082604|0.031774|0.026556|0.028409|0.004406|0.018875|0.059828|0.023066|0.001661|0.025111|0.024905

>  <DFT:MULLIKEN_CHARGES>  (8)
-0.195152|0.740875|-0.509009|-0.394366|-0.3239|-0.056861|0.149657|-0.34024|0.087904|0.016114|0.074266|0.069918|0.079854|0.200992|0.057852|0.034876|0.045392|0.012011|0.023551|0.117913|0.026115|0.005556|0.046049|0.030634

>  <DFT:ROT_CONSTANTS>  (8)
0.06887857149764115|0.02326388886544058|0.021061097311480877

>  <DFT:DIPOLE>  (8)
1.3808294078442473|-0.8145198119247689|1.5005947561514832|2.195886381344623

>  <DFT:XC_ENERGY>  (8)
-59.57575352760915

>  <DFT:NUCLEAR_REPULSION_ENERGY>  (8)
707.2787116458962

>  <DFT:ONE_ELECTRON_ENERGY>  (8)
-2477.6255178677548

>  <DFT:TWO_ELECTRON_ENERGY>  (8)
1046.8355592178152

>  <DFT:HOMO_ENERGY>  (8)
-0.30076768774731105

>  <DFT:LUMO_ENERGY>  (8)
0.12044091276939053

>  <DFT:HOMO_LUMO_GAP>  (8)
0.4212086005167016

>  <DFT:MAYER_BOND_ORDER>  (8)
0.981226|1.917571|1.050495|0.927984|1.033888|1.064494|1.039387|1.076727|1.09271|1.006165|0.95746|0.94951|0.955498|0.9529|0.898688|0.946467|0.943865|0.95491|0.947052|0.95022|0.95407|0.936177|0.938365|0.936075

>  <DFT:WIBERG_LOWDIN_BOND_ORDER>  (8)
0.984859|1.997477|1.176808|0.930556|1.024102|1.02254|1.097047|1.103781|1.018478|1.021467|0.969124|0.970761|0.96578|1.127945|0.926969|0.935324|0.934018|0.940105|0.945729|1.01685|0.946272|0.936278|0.934024|0.940803

>  <DFT:TOTAL_MAYER_BOND_ORDER>  (8)
3.880722|5.03201|2.065161|2.073233|3.925301|4.024615|4.021358|3.111274|4.106477|3.977121|0.997254|0.991065|1.001456|1.024913|0.981328|0.996871|0.997752|0.974758|0.980874|0.987287|0.97983|0.975921|1.00027|0.980105

>  <DFT:TOTAL_WIBERG_LOWDIN_BOND_ORDER>  (8)
4.060668|5.485567|2.297381|2.514334|4.374927|4.258932|4.300353|3.552649|4.30124|4.256454|1.10172|1.099926|1.099494|1.242016|1.113323|1.108971|1.1116|1.099002|1.095498|1.165328|1.094263|1.102703|1.114456|1.101966

>  <MBIScharge>  (8)
-0.8413|1.4159|-0.8756|-0.8015|-0.4763|-0.1903|0.0523|-0.6476|0.0500|-0.1873|0.2275|0.2310|0.2296|0.5173|0.2012|0.1217|0.1268|0.0470|0.0785|0.3456|0.0880|0.0489|0.1226|0.1160

$$$$

     RDKit          3D

 31 31  0  0  0  0  0  0  0  0999 V2000
    3.7016   -1.9573   -0.4710 C   0  0  0  0  0  0  0  0  0  0  0  0
    2.4111   -1.3482    0.0610 C   0  0  0  0  0  0  0  0  0  0  0  0
    2.1257   -0.0006   -0.6040 C   0  0  0  0  0  0  0  0  0  0  0  0
    0.9379    0.6438   -0.0801 N   0  0  0  0  0  0  0  0  0  0  0  0
    1.0816    1.6956    0.7430 C   0  0  0  0  0  0  0  0  0  0  0  0
    2.1350    2.1755    1.0950 O   0  0  0  0  0  0  0  0  0  0  0  0
   -0.3662    0.1161   -0.4513 C   0  0  0  0  0  0  0  0  0  0  0  0
   -1.2467    1.1706   -1.1597 C   0  0  0  0  0  0  0  0  0  0  0  0
   -2.4114    1.6407   -0.2937 C   0  0  0  0  0  0  0  0  0  0  0  0
   -3.3331    0.4742    0.0730 C   0  0  0  0  0  0  0  0  0  0  0  0
   -2.5403   -0.8101    0.3565 C   0  0  0  0  0  0  0  0  0  0  0  0
   -1.1008   -0.4956    0.7502 C   0  0  0  0  0  0  0  0  0  0  0  0
    3.8993   -2.9112    0.0113 H   0  0  0  0  0  0  0  0  0  0  0  0
    4.5411   -1.2938   -0.2794 H   0  0  0  0  0  0  0  0  0  0  0  0
    3.6326   -2.1225   -1.5443 H   0  0  0  0  0  0  0  0  0  0  0  0
    1.5817   -2.0353   -0.1225 H   0  0  0  0  0  0  0  0  0  0  0  0
    2.4914   -1.1957    1.1388 H   0  0  0  0  0  0  0  0  0  0  0  0
    2.9576    0.6811   -0.4115 H   0  0  0  0  0  0  0  0  0  0  0  0
    2.0161   -0.1295   -1.6860 H   0  0  0  0  0  0  0  0  0  0  0  0
    0.1154    2.1086    1.0791 H   0  0  0  0  0  0  0  0  0  0  0  0
   -0.1637   -0.6898   -1.1639 H   0  0  0  0  0  0  0  0  0  0  0  0
   -1.6521    0.7406   -2.0776 H   0  0  0  0  0  0  0  0  0  0  0  0
   -0.6254    2.0224   -1.4422 H   0  0  0  0  0  0  0  0  0  0  0  0
   -2.9796    2.4006   -0.8330 H   0  0  0  0  0  0  0  0  0  0  0  0
   -2.0297    2.1105    0.6135 H   0  0  0  0  0  0  0  0  0  0  0  0
   -3.9210    0.7524    0.9489 H   0  0  0  0  0  0  0  0  0  0  0  0
   -4.0340    0.2910   -0.7430 H   0  0  0  0  0  0  0  0  0  0  0  0
   -3.0252   -1.3795    1.1501 H   0  0  0  0  0  0  0  0  0  0  0  0
   -2.5235   -1.4419   -0.5341 H   0  0  0  0  0  0  0  0  0  0  0  0
   -0.5870   -1.4061    1.0637 H   0  0  0  0  0  0  0  0  0  0  0  0
   -1.0882    0.1935    1.5944 H   0  0  0  0  0  0  0  0  0  0  0  0
  1  2  1  0
  2  3  1  0
  3  4  1  0
  4  5  1  0
  5  6  2  0
  4  7  1  0
  7  8  1  0
  8  9  1  0
  9 10  1  0
 10 11  1  0
 11 12  1  0
 12  7  1  0
  1 13  1  0
  1 14  1  0
  1 15  1  0
  2 16  1  0
  2 17  1  0
  3 18  1  0
  3 19  1  0
  5 20  1  0
  7 21  1  0
  8 22  1  0
  8 23  1  0
  9 24  1  0
  9 25  1  0
 10 26  1  0
 10 27  1  0
 11 28  1  0
 11 29  1  0
 12 30  1  0
 12 31  1  0
M  END
>  <CHEMBL_ID>  (9)
CHEMBL295209

>  <CONF_ID>  (9)
conf_02

>  <GFN2:TOTAL_ENERGY>  (9)
-38.125705786001

>  <GFN2:ATOMIC_ENERGY>  (9)
-31.78256734008899

>  <GFN2:FORMATION_ENERGY>  (9)
-6.343138445912011

>  <GFN2:TOTAL_ENTHALPY>  (9)
-37.833893091196

>  <GFN2:TOTAL_FREE_ENERGY>  (9)
-37.887425306029

>  <GFN2:DIPOLE>  (9)
-2.981|-2.986|-2.092|4.710

>  <GFN2:QUADRUPOLE>  (9)
-1.073|-10.975|-2.869|-5.851|-4.713|3.942

>  <GFN2:ROT_CONSTANTS>  (9)
0.04945968|0.01793012|0.01501081

>  <GFN2:ENTHALPY>  (9)
6446.997|888.752|1481.254|8817.003

>  <GFN2:HEAT_CAPACITY>  (9)
42.745|2.981|4.968|50.694

>  <GFN2:ENTROPY>  (9)
40.227|31.173|41.268|112.668

>  <GFN2:HOMO_ENERGY>  (9)
-0.3862093

>  <GFN2:LUMO_ENERGY>  (9)
-0.2023398

>  <GFN2:HOMO_LUMO_GAP>  (9)
0.1838696

>  <GFN2:FERMI_LEVEL>  (9)
-0.2942745

>  <GFN2:MULLIKEN_CHARGES>  (9)
-0.10611202|-0.05671203|-0.00393382|-0.10257894|0.24567307|-0.42826935|0.03325232|-0.06593159|-0.05541443|-0.05910569|-0.05692316|-0.06250807|0.04077178|0.04289687|0.03579809|0.03077049|0.04309993|0.07907527|0.03692876|0.00126503|0.04455114|0.04078744|0.03972836|0.03450367|0.03486232|0.03353826|0.03277809|0.03578455|0.03272751|0.03469399|0.04400216

>  <GFN2:COVALENT_COORDINATION_NUMBER>  (9)
3.753|3.800|3.753|2.731|2.712|0.857|3.796|3.803|3.802|3.803|3.804|3.805|0.925|0.925|0.925|0.924|0.924|0.924|0.924|0.923|0.924|0.924|0.924|0.924|0.924|0.924|0.924|0.924|0.924|0.924|0.925

>  <GFN2:DISPERSION_COEFFICIENT_MOLECULAR>  (9)
7359.111109

>  <GFN2:DISPERSION_COEFFICIENT_ATOMIC>  (9)
22.587|21.595|20.706|23.252|22.878|22.254|20.020|21.762|21.569|21.636|21.595|21.697|2.439|2.411|2.506|2.576|2.408|1.989|2.490|3.037|2.389|2.438|2.453|2.523|2.518|2.537|2.547|2.506|2.548|2.521|2.396

>  <GFN2:POLARIZABILITY_MOLECULAR>  (9)
127.508522

>  <GFN2:POLARIZABILITY_ATOMIC>  (9)
6.777|6.616|6.489|7.162|7.829|6.325|6.371|6.641|6.612|6.622|6.616|6.631|2.442|2.428|2.475|2.510|2.427|2.205|2.468|2.725|2.417|2.442|2.449|2.484|2.482|2.491|2.496|2.475|2.496|2.483|2.421

>  <GFN2:WIBERG_BOND_ORDER>  (9)
1.018|0.996|0.983|1.278|1.703|0.976|0.981|1.010|1.006|1.003|1.008|0.987|0.987|0.987|0.988|0.976|0.978|0.963|0.969|0.918|0.966|0.979|0.976|0.977|0.974|0.981|0.981|0.979|0.980|0.976|0.973

>  <GFN2:TOTAL_WIBERG_BOND_ORDER>  (9)
3.995|3.997|3.967|3.511|3.956|2.011|3.970|3.996|3.997|3.997|3.997|3.996|0.998|0.998|0.999|0.999|0.998|0.993|0.999|1.000|0.998|0.998|0.998|0.998|0.999|0.999|0.999|0.998|0.999|0.999|0.998

>  <DFT:TOTAL_ENERGY>  (9)
-521.9746844858411

>  <DFT:ATOMIC_ENERGY>  (9)
-517.0274533806436

>  <DFT:FORMATION_ENERGY>  (9)
-4.947231105197488

>  <DFT:ESP_AT_NUCLEI>  (9)
-14.717561|-14.711765|-14.681673|-18.308792|-14.631048|-22.358026|-14.662562|-14.706907|-14.707921|-14.709853|-14.70711|-14.706991|-1.113199|-1.114255|-1.112741|-1.113984|-1.117423|-1.11046|-1.106363|-1.094315|-1.097221|-1.107701|-1.106551|-1.112333|-1.112665|-1.115475|-1.115245|-1.111982|-1.111895|-1.108546|-1.105862

>  <DFT:LOWDIN_CHARGES>  (9)
-0.061021|-0.052333|0.037766|-0.047046|0.086451|-0.23078|0.031957|-0.042788|-0.04201|-0.041679|-0.041373|-0.038452|0.027984|0.028165|0.023303|0.017104|0.028868|0.031764|0.017189|-0.009062|0.02615|0.02643|0.029867|0.028948|0.016773|0.025794|0.024098|0.028227|0.021426|0.026012|0.022266

>  <DFT:MULLIKEN_CHARGES>  (9)
-0.048395|-0.089589|0.094831|-0.312051|0.221655|-0.305461|-0.033821|0.014272|-0.040606|-0.038097|-0.038956|0.044433|0.037577|0.03871|0.027721|0.026122|0.040793|0.053181|0.025154|-0.003691|0.023797|0.023804|0.036731|0.033521|0.021855|0.029157|0.025974|0.032183|0.016796|0.028431|0.013969

>  <DFT:ROT_CONSTANTS>  (9)
0.047389320942010274|0.017907789908150267|0.014806477705420677

>  <DFT:DIPOLE>  (9)
-2.7893639100888006|-2.527939682178596|-1.7195243383502523|4.138573910155282

>  <DFT:XC_ENERGY>  (9)
-52.56658467575906

>  <DFT:NUCLEAR_REPULSION_ENERGY>  (9)
761.5536360895039

>  <DFT:ONE_ELECTRON_ENERGY>  (9)
-2216.5213130102215

>  <DFT:TWO_ELECTRON_ENERGY>  (9)
985.5850242584021

>  <DFT:HOMO_ENERGY>  (9)
-0.31367333597859864

>  <DFT:LUMO_ENERGY>  (9)
0.10240626384162663

>  <DFT:HOMO_LUMO_GAP>  (9)
0.41607959982022524

>  <DFT:MAYER_BOND_ORDER>  (9)
1.095308|1.076025|0.947837|1.179792|1.986303|0.909888|1.027523|1.117235|1.083392|1.067124|1.119464|1.058905|0.971474|0.973939|0.973385|0.946049|0.947241|0.936888|0.953095|0.942366|0.927687|0.937456|0.943595|0.945574|0.930693|0.948122|0.95053|0.94737|0.938264|0.941332|0.915997

>  <DFT:WIBERG_LOWDIN_BOND_ORDER>  (9)
1.052569|1.032356|1.026418|1.372396|2.164566|1.015461|1.002295|1.033721|1.029538|1.024727|1.029581|1.010455|0.960204|0.961165|0.962499|0.938968|0.939265|0.925411|0.937637|0.915836|0.91374|0.93636|0.935076|0.935646|0.933838|0.941659|0.942219|0.93918|0.93864|0.933835|0.931443

>  <DFT:TOTAL_MAYER_BOND_ORDER>  (9)
4.01605|4.088415|3.99269|3.110727|4.163189|2.207008|4.051922|4.023968|4.144216|4.068644|4.092605|4.072412|0.985347|0.990428|0.988923|0.977634|0.981123|1.030678|0.985724|0.999263|0.983196|0.980042|0.995493|0.978226|0.981832|0.975698|0.97656|0.976647|0.977589|0.988516|0.990021

>  <DFT:TOTAL_WIBERG_LOWDIN_BOND_ORDER>  (9)
4.098459|4.252853|4.27884|4.003662|4.690154|2.568613|4.430222|4.246597|4.25528|4.240833|4.242588|4.260706|1.092641|1.094189|1.095037|1.104958|1.097708|1.12437|1.098865|1.105212|1.107802|1.100269|1.104702|1.096562|1.114744|1.097534|1.098587|1.097001|1.101027|1.103288|1.110016

>  <MBIScharge>  (9)
-0.3894|-0.2135|-0.0427|-0.3121|0.5126|-0.6622|0.1620|-0.2633|-0.1955|-0.1987|-0.1617|-0.2415|0.1257|0.1264|0.1222|0.1114|0.1178|0.1207|0.0955|0.0466|0.1261|0.1161|0.1119|0.1016|0.0953|0.0932|0.0944|0.0820|0.1117|0.1020|0.1058

$$$$

     RDKit          3D

 26 26  0  0  0  0  0  0  0  0999 V2000
    2.0156   -0.5587    1.6235 N   0  0  0  0  0  0  0  0  0  0  0  0
    0.7012    0.0533    1.5214 C   0  0  0  0  0  0  0  0  0  0  0  0
    0.6549    0.9697    0.2941 C   0  0  1  0  0  0  0  0  0  0  0  0
    1.1996    0.2155   -0.9240 C   0  0  0  0  0  0  0  0  0  0  0  0
    2.7123    0.1135   -0.8365 C   0  0  0  0  0  0  0  0  0  0  0  0
    3.4175    1.0602   -0.6248 O   0  0  0  0  0  0  0  0  0  0  0  0
    3.2432   -1.0943   -1.0769 O   0  0  0  0  0  0  0  0  0  0  0  0
   -0.7669    1.5055    0.0497 C   0  0  0  0  0  0  0  0  0  0  0  0
   -1.7477    0.4337   -0.2821 C   0  0  0  0  0  0  0  0  0  0  0  0
   -2.6504   -0.2374    0.4898 C   0  0  0  0  0  0  0  0  0  0  0  0
   -3.3009   -1.1611   -0.3658 C   0  0  0  0  0  0  0  0  0  0  0  0
   -2.7452   -0.9842   -1.5928 C   0  0  0  0  0  0  0  0  0  0  0  0
   -1.8058   -0.0225   -1.5528 O   0  0  0  0  0  0  0  0  0  0  0  0
    2.0464   -1.2173    2.3937 H   0  0  0  0  0  0  0  0  0  0  0  0
    2.7249    0.1474    1.7904 H   0  0  0  0  0  0  0  0  0  0  0  0
    0.4154    0.6343    2.4139 H   0  0  0  0  0  0  0  0  0  0  0  0
   -0.0306   -0.7521    1.4001 H   0  0  0  0  0  0  0  0  0  0  0  0
    1.3158    1.8252    0.4691 H   0  0  0  0  0  0  0  0  0  0  0  0
    0.7373   -0.7699   -0.9970 H   0  0  0  0  0  0  0  0  0  0  0  0
    0.9657    0.7795   -1.8301 H   0  0  0  0  0  0  0  0  0  0  0  0
    2.5710   -1.7861   -1.1132 H   0  0  0  0  0  0  0  0  0  0  0  0
   -1.1096    2.0251    0.9455 H   0  0  0  0  0  0  0  0  0  0  0  0
   -0.7335    2.2201   -0.7750 H   0  0  0  0  0  0  0  0  0  0  0  0
   -2.8349   -0.0886    1.5343 H   0  0  0  0  0  0  0  0  0  0  0  0
   -4.0718   -1.8545   -0.0993 H   0  0  0  0  0  0  0  0  0  0  0  0
   -2.9234   -1.4565   -2.5382 H   0  0  0  0  0  0  0  0  0  0  0  0
  1  2  1  0
  2  3  1  0
  3  4  1  0
  4  5  1  0
  5  6  2  0
  5  7  1  0
  3  8  1  0
  8  9  1  0
  9 10  2  0
 10 11  1  0
 11 12  2  0
 12 13  1  0
 13  9  1  0
  1 14  1  0
  1 15  1  0
  2 16  1  0
  2 17  1  0
  3 18  1  1
  4 19  1  0
  4 20  1  0
  7 21  1  0
  8 22  1  0
  8 23  1  0
 10 24  1  0
 11 25  1  0
 12 26  1  0
M  END
>  <CHEMBL_ID>  (10)
CHEMBL377707

>  <CONF_ID>  (10)
conf_01

>  <GFN2:TOTAL_ENERGY>  (10)
-41.010348360346

>  <GFN2:ATOMIC_ENERGY>  (10)
-35.16358828585999

>  <GFN2:FORMATION_ENERGY>  (10)
-5.8467600744860135

>  <GFN2:TOTAL_ENTHALPY>  (10)
-40.786019008008

>  <GFN2:TOTAL_FREE_ENERGY>  (10)
-40.840189029182

>  <GFN2:DIPOLE>  (10)
-3.957|-1.934|1.370|4.614

>  <GFN2:QUADRUPOLE>  (10)
-19.709|-5.747|7.419|5.981|3.086|12.289

>  <GFN2:ROT_CONSTANTS>  (10)
0.05058329|0.01510256|0.01408135

>  <GFN2:ENTHALPY>  (10)
6503.812|888.752|1481.254|8873.818

>  <GFN2:HEAT_CAPACITY>  (10)
42.677|2.981|4.968|50.626

>  <GFN2:ENTROPY>  (10)
41.122|31.385|41.504|114.010

>  <GFN2:HOMO_ENERGY>  (10)
-0.3792532

>  <GFN2:LUMO_ENERGY>  (10)
-0.2217102

>  <GFN2:HOMO_LUMO_GAP>  (10)
0.1575429

>  <GFN2:FERMI_LEVEL>  (10)
-0.3004817

>  <GFN2:MULLIKEN_CHARGES>  (10)
-0.34444590|0.01863115|-0.01800072|-0.09936656|0.36485151|-0.38651338|-0.36813860|-0.07395961|0.10676030|-0.07606148|-0.06493364|0.06161077|-0.18913482|0.14194467|0.15043289|0.01053748|0.03613974|0.05979440|0.04799846|0.07448124|0.32220116|0.05158221|0.06083267|0.03292503|0.03619618|0.04363486

>  <GFN2:COVALENT_COORDINATION_NUMBER>  (10)
2.630|3.734|3.856|3.805|2.689|0.857|1.659|3.805|3.101|3.025|3.010|3.061|1.731|0.860|0.860|0.923|0.924|0.924|0.924|0.924|0.805|0.924|0.924|0.926|0.926|0.926

>  <GFN2:DISPERSION_COEFFICIENT_MOLECULAR>  (10)
6599.636555

>  <GFN2:DISPERSION_COEFFICIENT_ATOMIC>  (10)
28.872|20.347|20.858|22.391|20.812|21.414|20.241|21.910|25.524|29.870|29.597|26.561|17.157|1.457|1.398|2.882|2.501|2.202|2.345|2.037|0.658|2.300|2.189|2.545|2.500|2.401

>  <GFN2:POLARIZABILITY_MOLECULAR>  (10)
123.436917

>  <GFN2:POLARIZABILITY_ATOMIC>  (10)
7.980|6.438|6.495|6.736|7.466|6.204|6.073|6.664|8.279|8.965|8.924|8.451|5.593|1.891|1.852|2.655|2.473|2.320|2.395|2.232|1.274|2.372|2.314|2.495|2.472|2.423

>  <GFN2:WIBERG_BOND_ORDER>  (10)
1.026|0.994|0.986|0.968|1.773|1.124|0.975|1.018|1.579|1.287|1.616|1.130|1.117|0.965|0.963|0.968|0.972|0.962|0.971|0.950|0.871|0.971|0.966|0.975|0.975|0.967

>  <GFN2:TOTAL_WIBERG_BOND_ORDER>  (10)
3.023|3.987|3.992|3.996|3.916|2.054|2.203|3.996|3.911|3.981|3.984|3.906|2.437|0.980|0.977|1.000|0.999|0.996|0.998|0.994|0.896|0.997|0.996|0.999|0.998|0.998

>  <DFT:TOTAL_ENERGY>  (10)
-630.5472290873674

>  <DFT:ATOMIC_ENERGY>  (10)
-626.1677562837162

>  <DFT:FORMATION_ENERGY>  (10)
-4.379472803651197

>  <DFT:ESP_AT_NUCLEI>  (10)
-18.343891|-14.68258|-14.695009|-14.702358|-14.599755|-22.346097|-22.278367|-14.69164|-14.660451|-14.717791|-14.715941|-14.665063|-22.231303|-1.048096|-1.051693|-1.114775|-1.108741|-1.111381|-1.094576|-1.091648|-0.962983|-1.09275|-1.095182|-1.080504|-1.080076|-1.068495

>  <DFT:LOWDIN_CHARGES>  (10)
-0.113391|0.018651|-0.036046|-0.065344|0.08481|-0.195697|-0.038747|-0.031033|0.019218|-0.090762|-0.081312|0.020581|0.006095|0.060877|0.06473|0.003893|0.017998|0.030564|0.022416|0.046634|0.091748|0.039841|0.040673|0.029045|0.031928|0.022629

>  <DFT:MULLIKEN_CHARGES>  (10)
-0.275229|0.119423|-0.229094|0.011441|0.171198|-0.247014|-0.189276|0.162672|0.004491|-0.080704|-0.050387|0.11444|-0.233325|0.113079|0.1289|0.009615|0.022839|0.051656|0.013041|0.061485|0.185612|0.029786|0.042525|0.008624|0.021143|0.03306

>  <DFT:ROT_CONSTANTS>  (10)
0.04881141275844766|0.01503357770051354|0.01389300061210591

>  <DFT:DIPOLE>  (10)
-3.7517837472531195|-1.9484729747128484|1.7163718528844991|4.562714165572195

>  <DFT:XC_ENERGY>  (10)
-59.610421278232195

>  <DFT:NUCLEAR_REPULSION_ENERGY>  (10)
824.3301359818187

>  <DFT:ONE_ELECTRON_ENERGY>  (10)
-2493.9805524088247

>  <DFT:TWO_ELECTRON_ENERGY>  (10)
1098.7325996595944

>  <DFT:HOMO_ENERGY>  (10)
-0.30582282014106876

>  <DFT:LUMO_ENERGY>  (10)
0.07663336281751029

>  <DFT:HOMO_LUMO_GAP>  (10)
0.3824561829585791

>  <DFT:MAYER_BOND_ORDER>  (10)
1.098652|1.021766|1.025174|0.977391|2.100232|1.191914|1.068329|1.024329|1.599045|1.209298|1.583548|1.118304|1.125066|0.966658|0.94927|0.947281|0.93868|0.922572|0.924358|0.92506|0.954361|0.930436|0.920601|1.011866|1.004346|1.003855

>  <DFT:WIBERG_LOWDIN_BOND_ORDER>  (10)
1.119744|1.013666|0.996802|1.016892|2.237864|1.373418|0.998871|1.054889|1.617935|1.272943|1.675666|1.297135|1.281091|1.031669|1.024899|0.937887|0.935326|0.906367|0.928349|0.918363|1.093639|0.922459|0.921801|0.94398|0.944448|0.96154

>  <DFT:TOTAL_MAYER_BOND_ORDER>  (10)
3.104111|4.011028|4.124883|3.805927|4.443582|2.245438|2.218522|3.91219|3.926634|3.86519|3.819402|3.810934|2.362661|0.995243|0.996578|0.975421|1.002061|0.999383|1.00615|0.999894|1.019905|0.993865|0.992688|0.99971|0.993716|1.000486

>  <DFT:TOTAL_WIBERG_LOWDIN_BOND_ORDER>  (10)
3.449095|4.308559|4.414011|4.244392|4.955206|2.611932|2.744355|4.237469|4.555552|4.270085|4.26938|4.355676|2.983345|1.156291|1.165037|1.099599|1.112114|1.117508|1.114398|1.102136|1.224055|1.095923|1.09791|1.091916|1.088726|1.090073

>  <MBIScharge>  (10)
-0.8543|0.0311|-0.0245|-0.5120|0.8785|-0.6538|-0.6877|-0.3467|0.2969|-0.3504|-0.2535|-0.0260|-0.2028|0.3603|0.3649|0.0542|0.1014|0.1211|0.1682|0.1880|0.5016|0.1589|0.1518|0.1906|0.1842|0.1601

$$$$

     RDKit          3D

  7  6  0  0  0  0  0  0  0  0999 V2000
    1.4952   -0.7808    0.5859 O   0  0  0  0  0  0  0  0  0  0  0  0
    0.8864   -0.0105   -0.1078 N   0  0  0  0  0  4  0  0  0  0  0  0
    1.3492    0.8472   -0.8100 O   0  0  0  0  0  1  0  0  0  0  0  0
   -0.5928   -0.1349   -0.0927 C   0  0  0  0  0  0  0  0  0  0  0  0
   -1.3047    1.2580    1.0633 Br  0  0  0  0  0  0  0  0  0  0  0  0
   -0.8761   -1.1024    0.3217 H   0  0  0  0  0  0  0  0  0  0  0  0
   -0.9877    0.0323   -1.0958 H   0  0  0  0  0  0  0  0  0  0  0  0
  1  2  2  0
  2  3  1  0
  2  4  1  0
  4  5  1  0
  4  6  1  0
  4  7  1  0
M  CHG  2   2   1   3  -1
M  END
>  <CHEMBL_ID>  (11)
CHEMBL2335229

>  <CONF_ID>  (11)
conf_00

>  <GFN2:TOTAL_ENERGY>  (11)
-18.181917110803

>  <GFN2:ATOMIC_ENERGY>  (11)
-16.769639332502003

>  <GFN2:FORMATION_ENERGY>  (11)
-1.4122777783009965

>  <GFN2:TOTAL_ENTHALPY>  (11)
-18.136786509121

>  <GFN2:TOTAL_FREE_ENERGY>  (11)
-18.173779325755

>  <GFN2:DIPOLE>  (11)
-2.475|-2.186|-1.632|3.684

>  <GFN2:QUADRUPOLE>  (11)
-2.676|3.419|0.341|3.0|0.992|2.335

>  <GFN2:ROT_CONSTANTS>  (11)
0.2916749|0.05598257|0.05251338

>  <GFN2:ENTHALPY>  (11)
1526.289|888.752|1481.254|3896.296

>  <GFN2:HEAT_CAPACITY>  (11)
9.864|2.981|4.968|17.813

>  <GFN2:ENTROPY>  (11)
10.122|27.034|40.701|77.858

>  <GFN2:HOMO_ENERGY>  (11)
-0.4488504

>  <GFN2:LUMO_ENERGY>  (11)
-0.3453421

>  <GFN2:HOMO_LUMO_GAP>  (11)
0.1035083

>  <GFN2:FERMI_LEVEL>  (11)
-0.3970962

>  <GFN2:MULLIKEN_CHARGES>  (11)
-0.34899393|0.56036824|-0.34512744|-0.00133173|-0.09294238|0.11410850|0.11391874

>  <GFN2:COVALENT_COORDINATION_NUMBER>  (11)
0.929|2.831|0.928|3.677|0.997|0.925|0.925

>  <GFN2:DISPERSION_COEFFICIENT_MOLECULAR>  (11)
1119.045764

>  <GFN2:DISPERSION_COEFFICIENT_ATOMIC>  (11)
20.656|13.368|20.583|20.829|187.555|1.662|1.663

>  <GFN2:POLARIZABILITY_MOLECULAR>  (11)
50.262072

>  <GFN2:POLARIZABILITY_ATOMIC>  (11)
6.095|5.430|6.084|6.539|22.081|2.016|2.017

>  <GFN2:WIBERG_BOND_ORDER>  (11)
1.487|1.491|0.921|0.982|0.967|0.962

>  <GFN2:TOTAL_WIBERG_BOND_ORDER>  (11)
1.978|3.919|1.980|3.947|1.077|0.987|0.987

>  <DFT:TOTAL_ENERGY>  (11)
-2818.0348294184955

>  <DFT:ATOMIC_ENERGY>  (11)
-2817.1360321093302

>  <DFT:FORMATION_ENERGY>  (11)
-0.8987973091652748

>  <DFT:ESP_AT_NUCLEI>  (11)
-22.271134|-18.076939|-22.272204|-14.591062|-175.783376|-1.025708|-1.02267

>  <DFT:LOWDIN_CHARGES>  (11)
-0.189784|0.249309|-0.190331|-0.045103|0.086271|0.043347|0.046292

>  <DFT:MULLIKEN_CHARGES>  (11)
-0.233077|0.207018|-0.229862|0.07427|-0.056967|0.116777|0.12184

>  <DFT:ROT_CONSTANTS>  (11)
0.20177970427869554|0.04001082277320406|0.038643946217394205

>  <DFT:DIPOLE>  (11)
-2.8614356609924374|-1.017116465867634|-0.632203090754192|3.101938215873657

>  <DFT:XC_ENERGY>  (11)
-89.566697102544

>  <DFT:NUCLEAR_REPULSION_ENERGY>  (11)
324.0171802097843

>  <DFT:ONE_ELECTRON_ENERGY>  (11)
-4559.2348005219565

>  <DFT:TWO_ELECTRON_ENERGY>  (11)
1506.75110397442

>  <DFT:HOMO_ENERGY>  (11)
-0.38987861094920373

>  <DFT:LUMO_ENERGY>  (11)
-0.02115785504514834

>  <DFT:HOMO_LUMO_GAP>  (11)
0.3687207559040554

>  <DFT:MAYER_BOND_ORDER>  (11)
1.56377|1.564435|0.857661|1.058229|0.946482|0.946222

>  <DFT:WIBERG_LOWDIN_BOND_ORDER>  (11)
1.937514|1.943093|0.976502|1.187792|0.96121|0.9594

>  <DFT:TOTAL_MAYER_BOND_ORDER>  (11)
1.935155|4.007068|1.927558|3.879547|1.10089|0.985381|0.980267

>  <DFT:TOTAL_WIBERG_LOWDIN_BOND_ORDER>  (11)
2.512059|4.977212|2.511166|4.315063|1.377376|1.10199|1.098611

>  <MBIScharge>  (11)
-0.4180|0.7318|-0.4154|-0.2433|-0.0935|0.2179|0.2206

$$$$

     RDKit          3D

 14 13  0  0  0  0  0  0  0  0999 V2000
   -0.0929    0.2804    1.8174 N   0  0  0  0  0  0  0  0  0  0  0  0
   -0.0088   -0.2134    0.4569 C   0  0  2  0  0  0  0  0  0  0  0  0
    0.8508    0.7648   -0.3539 C   0  0  0  0  0  0  0  0  0  0  0  0
    1.5190    0.0443   -1.8945 S   0  0  0  0  0  0  0  0  0  0  0  0
   -1.4012   -0.4097   -0.1795 C   0  0  0  0  0  0  0  0  0  0  0  0
   -2.4057   -0.2042    0.4413 O   0  0  0  0  0  0  0  0  0  0  0  0
   -1.4205   -0.8319   -1.4430 O   0  0  0  0  0  0  0  0  0  0  0  0
   -0.5978   -0.3848    2.3941 H   0  0  0  0  0  0  0  0  0  0  0  0
   -0.6324    1.1414    1.8346 H   0  0  0  0  0  0  0  0  0  0  0  0
    0.4878   -1.1941    0.4891 H   0  0  0  0  0  0  0  0  0  0  0  0
    0.2688    1.6328   -0.6654 H   0  0  0  0  0  0  0  0  0  0  0  0
    1.6851    1.1003    0.2610 H   0  0  0  0  0  0  0  0  0  0  0  0
    2.2813   -0.8779   -1.3052 H   0  0  0  0  0  0  0  0  0  0  0  0
   -0.5336   -0.8480   -1.8533 H   0  0  0  0  0  0  0  0  0  0  0  0
  1  2  1  0
  2  3  1  0
  3  4  1  0
  2  5  1  0
  5  6  2  0
  5  7  1  0
  1  8  1  0
  1  9  1  0
  2 10  1  1
  3 11  1  0
  3 12  1  0
  4 13  1  0
  7 14  1  0
M  END
>  <CHEMBL_ID>  (12)
CHEMBL171281

>  <CONF_ID>  (12)
conf_02

>  <GFN2:TOTAL_ENERGY>  (12)
-24.278459895749

>  <GFN2:ATOMIC_ENERGY>  (12)
-21.421763394079996

>  <GFN2:FORMATION_ENERGY>  (12)
-2.8566965016690027

>  <GFN2:TOTAL_ENTHALPY>  (12)
-24.166398589396

>  <GFN2:TOTAL_FREE_ENERGY>  (12)
-24.209033353205

>  <GFN2:DIPOLE>  (12)
3.637|-0.259|0.536|3.686

>  <GFN2:QUADRUPOLE>  (12)
-7.636|-4.366|8.906|-0.608|-0.164|-1.27

>  <GFN2:ROT_CONSTANTS>  (12)
0.1109411|0.05165346|0.03747341

>  <GFN2:ENTHALPY>  (12)
3532.946|888.752|1481.254|5902.953

>  <GFN2:HEAT_CAPACITY>  (12)
23.774|2.981|4.968|31.723

>  <GFN2:ENTROPY>  (12)
21.051|28.410|40.272|89.732

>  <GFN2:HOMO_ENERGY>  (12)
-0.3916314

>  <GFN2:LUMO_ENERGY>  (12)
-0.2467275

>  <GFN2:HOMO_LUMO_GAP>  (12)
0.1449039

>  <GFN2:FERMI_LEVEL>  (12)
-0.3191794

>  <GFN2:MULLIKEN_CHARGES>  (12)
-0.33941126|0.01758782|-0.01440311|-0.26903083|0.34284621|-0.37405709|-0.36898219|0.16181575|0.15623617|0.05205180|0.06179565|0.07690470|0.16468039|0.33196600

>  <GFN2:COVALENT_COORDINATION_NUMBER>  (12)
2.633|3.799|3.798|1.915|2.686|0.856|1.658|0.860|0.860|0.923|0.925|0.925|0.923|0.807

>  <GFN2:DISPERSION_COEFFICIENT_MOLECULAR>  (12)
2396.551723

>  <GFN2:DISPERSION_COEFFICIENT_ATOMIC>  (12)
28.739|20.282|20.836|152.643|21.175|21.170|20.257|1.323|1.359|2.295|2.178|2.011|1.297|0.632

>  <GFN2:POLARIZABILITY_MOLECULAR>  (12)
74.996052

>  <GFN2:POLARIZABILITY_ATOMIC>  (12)
7.962|6.412|6.499|20.794|7.531|6.169|6.076|1.802|1.826|2.369|2.308|2.218|1.781|1.248

>  <GFN2:WIBERG_BOND_ORDER>  (12)
1.029|0.981|0.999|0.924|1.787|1.153|0.956|0.959|0.948|0.972|0.969|0.960|0.834

>  <GFN2:TOTAL_WIBERG_BOND_ORDER>  (12)
3.011|3.989|3.971|2.075|3.916|2.071|2.221|0.974|0.976|0.997|0.996|0.994|0.973|0.890

>  <DFT:TOTAL_ENERGY>  (12)
-721.4700023415752

>  <DFT:ATOMIC_ENERGY>  (12)
-719.3594518627685

>  <DFT:FORMATION_ENERGY>  (12)
-2.1105504788066582

>  <DFT:ESP_AT_NUCLEI>  (12)
-18.339052|-14.650009|-14.654329|-59.166741|-14.59151|-22.328759|-22.267185|-1.043645|-1.043411|-1.072379|-1.059721|-1.070296|-0.992058|-0.952648

>  <DFT:LOWDIN_CHARGES>  (12)
-0.101277|-0.052347|-0.134082|0.19429|0.061386|-0.176323|-0.04256|0.065285|0.061376|0.032138|0.03673|0.037648|-0.018898|0.036632

>  <DFT:MULLIKEN_CHARGES>  (12)
-0.224021|-0.071503|-0.124508|-0.096702|0.181553|-0.222526|-0.190897|0.121749|0.11665|0.051096|0.092709|0.103284|0.086555|0.176562

>  <DFT:ROT_CONSTANTS>  (12)
0.0968460350508685|0.05128218917372718|0.035599571833068305

>  <DFT:DIPOLE>  (12)
3.4788213422867567|-0.11884374028418701|0.1674698502523779|3.4848770303840166

>  <DFT:XC_ENERGY>  (12)
-48.48826162685203

>  <DFT:NUCLEAR_REPULSION_ENERGY>  (12)
382.64884835828695

>  <DFT:ONE_ELECTRON_ENERGY>  (12)
-1749.9612706004436

>  <DFT:TWO_ELECTRON_ENERGY>  (12)
694.3376958319769

>  <DFT:HOMO_ENERGY>  (12)
-0.33462890972128717

>  <DFT:LUMO_ENERGY>  (12)
0.07175750725120869

>  <DFT:HOMO_LUMO_GAP>  (12)
0.4063864169724959

>  <DFT:MAYER_BOND_ORDER>  (12)
1.117524|0.98603|1.027032|0.873148|2.156482|1.227421|0.965149|0.969324|0.927688|0.947038|0.950146|0.956454|0.907448

>  <DFT:WIBERG_LOWDIN_BOND_ORDER>  (12)
1.134396|1.026707|1.130253|0.970487|2.267806|1.414124|1.026825|1.029429|0.913406|0.953837|0.950315|1.075129|1.048293

>  <DFT:TOTAL_MAYER_BOND_ORDER>  (12)
3.103005|3.892907|3.909512|2.151975|4.313244|2.276503|2.229244|1.003857|1.007464|0.992559|0.978992|0.99458|0.975667|1.077386

>  <DFT:TOTAL_WIBERG_LOWDIN_BOND_ORDER>  (12)
3.428755|4.475882|4.294701|2.600155|4.939118|2.631299|2.773177|1.162912|1.166549|1.105226|1.101876|1.110915|1.130007|1.345241

>  <MBIScharge>  (12)
-0.8834|-0.0379|-0.2592|-0.3137|0.7652|-0.6154|-0.6337|0.3824|0.3803|0.1569|0.1842|0.1873|0.2114|0.4756

$$$$

     RDKit          3D

 28 28  0  0  0  0  0  0  0  0999 V2000
   -2.7898    1.5220   -0.7207 C   0  0  0  0  0  0  0  0  0  0  0  0
   -1.6395    1.3397    0.2623 C   0  0  0  0  0  0  0  0  0  0  0  0
   -1.1565   -0.1179    0.3560 C   0  0  2  0  0  0  0  0  0  0  0  0
   -2.0955   -0.9259    1.1051 N   0  0  0  0  0  0  0  0  0  0  0  0
   -1.7882   -2.3379    1.0707 C   0  0  0  0  0  0  0  0  0  0  0  0
    0.1790   -0.0590    1.0979 C   0  0  0  0  0  0  0  0  0  0  0  0
    0.2490    0.0055    2.3005 O   0  0  0  0  0  0  0  0  0  0  0  0
    1.3926    0.0225    0.2383 C   0  0  0  0  0  0  0  0  0  0  0  0
    2.3730    0.9536    0.5751 C   0  0  0  0  0  0  0  0  0  0  0  0
    3.5140    1.0784   -0.1944 C   0  0  0  0  0  0  0  0  0  0  0  0
    3.7011    0.2556   -1.2934 C   0  0  0  0  0  0  0  0  0  0  0  0
    2.7459   -0.6939   -1.6164 C   0  0  0  0  0  0  0  0  0  0  0  0
    1.5928   -0.8076   -0.8606 C   0  0  0  0  0  0  0  0  0  0  0  0
   -2.4976    1.1968   -1.7175 H   0  0  0  0  0  0  0  0  0  0  0  0
   -3.0703    2.5712   -0.7717 H   0  0  0  0  0  0  0  0  0  0  0  0
   -3.6662    0.9555   -0.4147 H   0  0  0  0  0  0  0  0  0  0  0  0
   -0.7997    1.9641   -0.0533 H   0  0  0  0  0  0  0  0  0  0  0  0
   -1.9421    1.6533    1.2622 H   0  0  0  0  0  0  0  0  0  0  0  0
   -0.9927   -0.5007   -0.6699 H   0  0  0  0  0  0  0  0  0  0  0  0
   -3.0382   -0.7663    0.7661 H   0  0  0  0  0  0  0  0  0  0  0  0
   -2.5484   -2.8787    1.6306 H   0  0  0  0  0  0  0  0  0  0  0  0
   -1.7407   -2.7511    0.0486 H   0  0  0  0  0  0  0  0  0  0  0  0
   -0.8236   -2.5003    1.5518 H   0  0  0  0  0  0  0  0  0  0  0  0
    2.2183    1.5788    1.4419 H   0  0  0  0  0  0  0  0  0  0  0  0
    4.2621    1.8125    0.0657 H   0  0  0  0  0  0  0  0  0  0  0  0
    4.5949    0.3475   -1.8926 H   0  0  0  0  0  0  0  0  0  0  0  0
    2.9001   -1.3493   -2.4610 H   0  0  0  0  0  0  0  0  0  0  0  0
    0.8666   -1.5682   -1.1069 H   0  0  0  0  0  0  0  0  0  0  0  0
  1  2  1  0
  2  3  1  0
  3  4  1  0
  4  5  1  0
  3  6  1  0
  6  7  2  0
  6  8  1  0
  8  9  2  0
  9 10  1  0
 10 11  2  0
 11 12  1  0
 12 13  2  0
 13  8  1  0
  1 14  1  0
  1 15  1  0
  1 16  1  0
  2 17  1  0
  2 18  1  0
  3 19  1  6
  4 20  1  0
  5 21  1  0
  5 22  1  0
  5 23  1  0
  9 24  1  0
 10 25  1  0
 11 26  1  0
 12 27  1  0
 13 28  1  0
M  END
>  <CHEMBL_ID>  (13)
CHEMBL3298875

>  <CONF_ID>  (13)
conf_00

>  <GFN2:TOTAL_ENERGY>  (13)
-38.155064942959

>  <GFN2:ATOMIC_ENERGY>  (13)
-32.001932655709986

>  <GFN2:FORMATION_ENERGY>  (13)
-6.153132287249015

>  <GFN2:TOTAL_ENTHALPY>  (13)
-37.907644684265

>  <GFN2:TOTAL_FREE_ENERGY>  (13)
-37.960385440946

>  <GFN2:DIPOLE>  (13)
-0.170|0.084|-4.133|4.136

>  <GFN2:QUADRUPOLE>  (13)
8.632|2.146|3.814|-0.515|1.923|-12.446

>  <GFN2:ROT_CONSTANTS>  (13)
0.04360069|0.01580887|0.0150077

>  <GFN2:ENTHALPY>  (13)
6268.113|888.752|1481.254|8638.119

>  <GFN2:HEAT_CAPACITY>  (13)
42.269|2.981|4.968|50.218

>  <GFN2:ENTROPY>  (13)
38.173|31.424|41.405|111.002

>  <GFN2:HOMO_ENERGY>  (13)
-0.3539315

>  <GFN2:LUMO_ENERGY>  (13)
-0.2704572

>  <GFN2:HOMO_LUMO_GAP>  (13)
0.0834743

>  <GFN2:FERMI_LEVEL>  (13)
-0.3121944

>  <GFN2:MULLIKEN_CHARGES>  (13)
-0.10141676|-0.05479632|0.03265450|-0.24371323|-0.02177966|0.22557809|-0.34028996|-0.01381574|-0.01937275|-0.02623367|-0.02451607|-0.02734316|-0.02689966|0.03663528|0.04186806|0.03780700|0.03236129|0.05830068|0.00950478|0.13966467|0.04170041|0.00309006|0.04069370|0.04998415|0.03975421|0.03796647|0.03727490|0.03533870

>  <GFN2:COVALENT_COORDINATION_NUMBER>  (13)
3.751|3.809|3.795|2.681|3.693|2.829|0.857|2.971|2.926|2.918|2.920|2.919|2.921|0.925|0.925|0.925|0.924|0.924|0.922|0.860|0.925|0.923|0.925|0.926|0.926|0.926|0.926|0.926

>  <GFN2:DISPERSION_COEFFICIENT_MOLECULAR>  (13)
7788.877165

>  <GFN2:DISPERSION_COEFFICIENT_ATOMIC>  (13)
22.499|21.551|20.031|26.355|21.144|23.263|20.524|28.354|28.492|28.657|28.616|28.684|28.674|2.494|2.424|2.478|2.553|2.219|2.899|1.473|2.426|3.005|2.440|2.320|2.452|2.476|2.485|2.512

>  <GFN2:POLARIZABILITY_MOLECULAR>  (13)
137.112465

>  <GFN2:POLARIZABILITY_ATOMIC>  (13)
6.764|6.608|6.373|7.625|6.579|7.904|6.074|8.734|8.754|8.779|8.772|8.783|8.781|2.470|2.435|2.462|2.499|2.330|2.663|1.902|2.436|2.711|2.443|2.382|2.449|2.461|2.465|2.478

>  <GFN2:WIBERG_BOND_ORDER>  (13)
1.017|0.965|1.011|1.027|0.951|1.859|1.004|1.387|1.452|1.434|1.436|1.448|1.393|0.987|0.985|0.984|0.976|0.975|0.946|0.951|0.984|0.974|0.983|0.968|0.970|0.971|0.970|0.966

>  <GFN2:TOTAL_WIBERG_BOND_ORDER>  (13)
3.996|3.993|3.988|3.074|3.987|3.919|2.086|3.989|3.989|3.992|3.991|3.992|3.992|0.999|0.998|0.999|0.999|0.997|1.000|0.980|0.998|1.000|0.998|0.997|0.998|0.998|0.998|0.999

>  <DFT:TOTAL_ENERGY>  (13)
-557.5867995344139

>  <DFT:ATOMIC_ENERGY>  (13)
-552.8155818872884

>  <DFT:FORMATION_ENERGY>  (13)
-4.771217647125468

>  <DFT:ESP_AT_NUCLEI>  (13)
-14.711242|-14.705169|-14.680893|-18.348955|-14.692875|-14.64|-22.327597|-14.707811|-14.706974|-14.707627|-14.705134|-14.705872|-14.70137|-1.107681|-1.107393|-1.105767|-1.109012|-1.113999|-1.108721|-1.057404|-1.110804|-1.11788|-1.114081|-1.09381|-1.091394|-1.089265|-1.089437|-1.084427

>  <DFT:LOWDIN_CHARGES>  (13)
-0.061641|-0.031317|-0.012031|-0.10851|0.004728|0.088399|-0.134117|-0.067213|0.002151|-0.026182|-0.017733|-0.028017|-0.01787|0.025573|0.03121|0.020654|0.029515|0.034336|0.003584|0.054366|0.025676|-0.002602|0.023888|0.036607|0.033111|0.032608|0.032317|0.028512

>  <DFT:MULLIKEN_CHARGES>  (13)
-0.019913|-0.049722|-0.013304|-0.275815|0.058808|0.103096|-0.196844|-0.041511|0.005826|-0.010167|-0.000965|-0.013616|-0.008623|0.031449|0.042725|0.024412|0.030878|0.050057|-0.000573|0.108324|0.040317|0.001417|0.045616|0.021539|0.020003|0.020351|0.01718|0.009056

>  <DFT:ROT_CONSTANTS>  (13)
0.041980469355991076|0.015425989274061996|0.014730628773697471

>  <DFT:DIPOLE>  (13)
-0.22247947784435043|-0.008495813679213697|-3.4976269626402474|3.5047059315583113

>  <DFT:XC_ENERGY>  (13)
-55.391513038073114

>  <DFT:NUCLEAR_REPULSION_ENERGY>  (13)
781.7655795998818

>  <DFT:ONE_ELECTRON_ENERGY>  (13)
-2305.1875734643327

>  <DFT:TWO_ELECTRON_ENERGY>  (13)
1021.2456685548383

>  <DFT:HOMO_ENERGY>  (13)
-0.30326178300912837

>  <DFT:LUMO_ENERGY>  (13)
0.02055525659054343

>  <DFT:HOMO_LUMO_GAP>  (13)
0.3238170395996718

>  <DFT:MAYER_BOND_ORDER>  (13)
1.09536|1.020734|1.055449|1.027169|0.899995|2.202595|0.907546|1.394227|1.390253|1.384884|1.398291|1.4018|1.381855|0.970812|0.969388|0.968034|0.947756|0.939685|0.926227|0.943356|0.979576|0.956443|0.971723|0.99659|0.992849|0.992188|0.989568|0.988002

>  <DFT:WIBERG_LOWDIN_BOND_ORDER>  (13)
1.05254|0.998062|1.098243|1.113527|0.977521|2.266321|1.025044|1.399526|1.476399|1.457172|1.463908|1.466131|1.410107|0.961064|0.957122|0.958946|0.930627|0.933311|0.899248|1.011193|0.965355|0.958075|0.959186|0.926272|0.931745|0.933213|0.931977|0.926376

>  <DFT:TOTAL_MAYER_BOND_ORDER>  (13)
4.002519|4.061945|3.897916|3.074913|3.958212|4.05382|2.284857|3.721782|3.913852|3.846833|3.851517|3.885282|3.88127|0.990423|0.987292|0.99369|0.984296|0.997454|0.993465|0.997333|0.990592|0.978718|1.000477|1.000286|0.983588|0.983178|0.983419|0.995199

>  <DFT:TOTAL_WIBERG_LOWDIN_BOND_ORDER>  (13)
4.101794|4.252512|4.46878|3.562804|4.150621|4.707123|2.625328|4.450286|4.297421|4.293433|4.29308|4.294619|4.300545|1.095214|1.092227|1.102131|1.100385|1.10437|1.121706|1.179175|1.090014|1.098381|1.099018|1.095524|1.087947|1.08781|1.088316|1.101074

>  <MBIScharge>  (13)
-0.3806|-0.2205|0.0060|-0.6129|-0.1315|0.5303|-0.5246|-0.1080|-0.1117|-0.1482|-0.1147|-0.1466|-0.1294|0.1231|0.1316|0.1188|0.1289|0.1328|0.0978|0.3528|0.1088|0.0547|0.1118|0.1501|0.1484|0.1449|0.1475|0.1405

$$$$

     RDKit          3D

 24 25  0  0  0  0  0  0  0  0999 V2000
   -3.1317    0.2692    0.3240 C   0  0  0  0  0  0  0  0  0  0  0  0
   -1.6950   -0.0719    0.7277 C   0  0  2  0  0  0  0  0  0  0  0  0
   -0.7495    1.0997    0.3577 C   0  0  0  0  0  0  0  0  0  0  0  0
    0.6545    0.6335    0.1292 C   0  0  0  0  0  0  0  0  0  0  0  0
    1.7703    1.2757    0.6406 C   0  0  0  0  0  0  0  0  0  0  0  0
    3.0373    0.7920    0.3609 C   0  0  0  0  0  0  0  0  0  0  0  0
    3.1938   -0.3405   -0.4206 C   0  0  0  0  0  0  0  0  0  0  0  0
    2.0823   -0.9973   -0.9207 C   0  0  0  0  0  0  0  0  0  0  0  0
    0.8138   -0.5079   -0.6574 C   0  0  0  0  0  0  0  0  0  0  0  0
   -0.4611   -1.1942   -1.0583 C   0  0  0  0  0  0  0  0  0  0  0  0
   -1.3212   -1.3431    0.1100 N   0  0  0  0  0  0  0  0  0  0  0  0
   -3.2042    0.3736   -0.7554 H   0  0  0  0  0  0  0  0  0  0  0  0
   -3.7993   -0.5290    0.6349 H   0  0  0  0  0  0  0  0  0  0  0  0
   -3.4470    1.1989    0.7910 H   0  0  0  0  0  0  0  0  0  0  0  0
   -1.6694   -0.2075    1.8151 H   0  0  0  0  0  0  0  0  0  0  0  0
   -1.1138    1.5506   -0.5712 H   0  0  0  0  0  0  0  0  0  0  0  0
   -0.7861    1.8644    1.1346 H   0  0  0  0  0  0  0  0  0  0  0  0
    1.6485    2.1580    1.2534 H   0  0  0  0  0  0  0  0  0  0  0  0
    3.9057    1.2985    0.7564 H   0  0  0  0  0  0  0  0  0  0  0  0
    4.1838   -0.7173   -0.6331 H   0  0  0  0  0  0  0  0  0  0  0  0
    2.1986   -1.8895   -1.5202 H   0  0  0  0  0  0  0  0  0  0  0  0
   -1.0045   -0.6041   -1.8039 H   0  0  0  0  0  0  0  0  0  0  0  0
   -0.2699   -2.1843   -1.4775 H   0  0  0  0  0  0  0  0  0  0  0  0
   -0.8360   -1.9275    0.7829 H   0  0  0  0  0  0  0  0  0  0  0  0
  1  2  1  0
  2  3  1  0
  3  4  1  0
  4  5  2  0
  5  6  1  0
  6  7  2  0
  7  8  1  0
  8  9  2  0
  9 10  1  0
 10 11  1  0
 11  2  1  0
  9  4  1  0
  1 12  1  0
  1 13  1  0
  1 14  1  0
  2 15  1  1
  3 16  1  0
  3 17  1  0
  5 18  1  0
  6 19  1  0
  7 20  1  0
  8 21  1  0
 10 22  1  0
 10 23  1  0
 11 24  1  0
M  END
>  <CHEMBL_ID>  (14)
CHEMBL293023

>  <CONF_ID>  (14)
conf_00

>  <GFN2:TOTAL_ENERGY>  (14)
-30.962479130536

>  <GFN2:ATOMIC_ENERGY>  (14)
-25.654063806096993

>  <GFN2:FORMATION_ENERGY>  (14)
-5.308415324439007

>  <GFN2:TOTAL_ENTHALPY>  (14)
-30.746613468556

>  <GFN2:TOTAL_FREE_ENERGY>  (14)
-30.791420764983

>  <GFN2:DIPOLE>  (14)
0.180|0.455|0.363|0.608

>  <GFN2:QUADRUPOLE>  (14)
-2.017|-3.373|0.729|-0.229|0.635|1.287

>  <GFN2:ROT_CONSTANTS>  (14)
0.08792536|0.02706595|0.02197449

>  <GFN2:ENTHALPY>  (14)
4189.355|888.752|1481.254|6559.361

>  <GFN2:HEAT_CAPACITY>  (14)
32.545|2.981|4.968|40.494

>  <GFN2:ENTROPY>  (14)
23.639|29.814|40.852|94.305

>  <GFN2:HOMO_ENERGY>  (14)
-0.3520162

>  <GFN2:LUMO_ENERGY>  (14)
-0.2171498

>  <GFN2:HOMO_LUMO_GAP>  (14)
0.1348664

>  <GFN2:FERMI_LEVEL>  (14)
-0.284583

>  <GFN2:MULLIKEN_CHARGES>  (14)
-0.11341395|0.05503944|-0.06962530|0.00595936|-0.04132858|-0.03478205|-0.03499929|-0.04079567|-0.00955532|0.01010905|-0.25780591|0.04275956|0.04590283|0.03558382|0.01849380|0.04502676|0.03184120|0.02557545|0.02688592|0.02683412|0.02510734|0.04226849|0.03419892|0.13072002

>  <GFN2:COVALENT_COORDINATION_NUMBER>  (14)
3.756|3.789|3.811|2.980|2.920|2.920|2.920|2.919|2.982|3.751|2.683|0.925|0.925|0.925|0.924|0.924|0.924|0.926|0.926|0.926|0.926|0.924|0.924|0.860

>  <GFN2:DISPERSION_COEFFICIENT_MOLECULAR>  (14)
5767.52554

>  <GFN2:DISPERSION_COEFFICIENT_ATOMIC>  (14)
22.725|19.665|21.824|27.883|29.027|28.866|28.871|29.014|28.249|20.465|26.690|2.412|2.372|2.508|2.756|2.383|2.560|2.650|2.631|2.632|2.657|2.419|2.528|1.540

>  <GFN2:POLARIZABILITY_MOLECULAR>  (14)
118.413949

>  <GFN2:POLARIZABILITY_ATOMIC>  (14)
6.797|6.316|6.650|8.662|8.835|8.811|8.811|8.833|8.718|6.451|7.673|2.429|2.408|2.477|2.596|2.414|2.502|2.546|2.536|2.537|2.549|2.432|2.486|1.944

>  <GFN2:WIBERG_BOND_ORDER>  (14)
1.002|0.968|1.021|1.420|1.439|1.438|1.439|1.421|1.003|1.001|1.005|1.372|0.985|0.986|0.986|0.972|0.956|0.977|0.969|0.972|0.971|0.969|0.959|0.973|0.962

>  <GFN2:TOTAL_WIBERG_BOND_ORDER>  (14)
3.995|3.986|3.997|3.989|3.992|3.992|3.992|3.992|3.988|3.988|3.081|0.998|0.997|0.999|1.000|0.998|0.999|0.999|0.999|0.998|0.999|0.998|0.998|0.983

>  <DFT:TOTAL_ENERGY>  (14)
-443.18944098613997

>  <DFT:ATOMIC_ENERGY>  (14)
-439.03581743316323

>  <DFT:FORMATION_ENERGY>  (14)
-4.15362355297674

>  <DFT:ESP_AT_NUCLEI>  (14)
-14.730252|-14.681881|-14.711243|-14.718573|-14.72068|-14.721126|-14.720959|-14.719849|-14.723748|-14.686181|-18.353822|-1.11842|-1.123716|-1.118536|-1.118154|-1.10774|-1.107329|-1.101145|-1.103304|-1.103199|-1.100468|-1.108766|-1.108861|-1.06352

>  <DFT:LOWDIN_CHARGES>  (14)
-0.060565|0.015822|-0.037083|-0.028888|-0.0323|-0.034202|-0.03409|-0.034983|-0.050166|0.030741|-0.109296|0.021144|0.025955|0.020358|0.02096|0.034544|0.03101|0.026375|0.028584|0.028591|0.026377|0.026667|0.026172|0.058274

>  <DFT:MULLIKEN_CHARGES>  (14)
0.046774|-0.087863|0.119484|-0.071544|-0.047436|-0.007429|-0.004359|-0.054628|-0.143665|0.244696|-0.292131|0.016988|0.030358|0.019751|0.02216|0.027083|0.019309|-0.008438|0.009221|0.009262|-0.006291|0.024842|0.02046|0.113394

>  <DFT:ROT_CONSTANTS>  (14)
0.08771638732614229|0.02653917559266244|0.021619191508941187

>  <DFT:DIPOLE>  (14)
0.3802618927622586|0.2352458167074954|0.4770855421983527|0.6538733179601444

>  <DFT:XC_ENERGY>  (14)
-45.19856893932572

>  <DFT:NUCLEAR_REPULSION_ENERGY>  (14)
603.2946763804507

>  <DFT:ONE_ELECTRON_ENERGY>  (14)
-1793.8070890361173

>  <DFT:TWO_ELECTRON_ENERGY>  (14)
792.5378781825077

>  <DFT:HOMO_ENERGY>  (14)
-0.2949803414627999

>  <DFT:LUMO_ENERGY>  (14)
0.06620756691121708

>  <DFT:HOMO_LUMO_GAP>  (14)
0.361187908374017

>  <DFT:MAYER_BOND_ORDER>  (14)
1.057337|1.007674|1.051088|1.42665|1.377391|1.399218|1.381392|1.415853|1.018777|1.055924|1.042624|1.397147|0.962526|0.965168|0.9662|0.939337|0.914743|0.925709|0.996633|0.990264|0.990927|0.996484|0.914596|0.949375|0.94806

>  <DFT:WIBERG_LOWDIN_BOND_ORDER>  (14)
1.036544|0.98928|1.027061|1.436982|1.457477|1.467581|1.457481|1.437088|1.018528|1.097823|1.085158|1.366822|0.959042|0.957826|0.958939|0.926667|0.918423|0.932613|0.929764|0.933449|0.933504|0.929948|0.927644|0.938013|1.017993

>  <DFT:TOTAL_MAYER_BOND_ORDER>  (14)
3.918405|4.145906|3.890944|3.986497|3.883722|3.841518|3.843347|3.882572|3.993946|3.939835|3.081758|1.004447|1.002805|0.988336|0.969843|0.992637|0.989884|0.992257|0.982785|0.982854|0.991928|0.985739|0.994623|0.993565

>  <DFT:TOTAL_WIBERG_LOWDIN_BOND_ORDER>  (14)
4.116899|4.456418|4.238844|4.462344|4.297244|4.294958|4.294722|4.296653|4.466614|4.302342|3.580096|1.101728|1.100577|1.096823|1.097722|1.103853|1.098842|1.092324|1.089659|1.089604|1.092198|1.096618|1.093905|1.173788

>  <MBIScharge>  (14)
-0.5009|0.2400|-0.3289|0.0755|-0.1984|-0.1536|-0.1563|-0.1825|-0.0254|0.0038|-0.6659|0.1405|0.1398|0.1377|0.0766|0.1398|0.1360|0.1428|0.1410|0.1413|0.1409|0.1051|0.1035|0.3475

$$$$

     RDKit          3D

 20 22  0  0  0  0  0  0  0  0999 V2000
   -2.5888   -1.6338    1.3487 O   0  0  0  0  0  0  0  0  0  0  0  0
   -2.0988   -0.7529    0.7200 C   0  0  0  0  0  0  0  0  0  0  0  0
   -2.6422    0.4988    0.6568 O   0  0  0  0  0  0  0  0  0  0  0  0
   -1.9127    1.3467   -0.1270 C   0  0  0  0  0  0  0  0  0  0  0  0
   -2.2240    2.4783   -0.3120 O   0  0  0  0  0  0  0  0  0  0  0  0
   -0.6979    0.6161   -0.6684 C   0  0  1  0  0  0  0  0  0  0  0  0
    0.5908    1.1136    0.0435 C   0  0  2  0  0  0  0  0  0  0  0  0
    1.7918    0.4218   -0.6278 C   0  0  0  0  0  0  0  0  0  0  0  0
    1.6668   -1.0014   -0.0511 C   0  0  0  0  0  0  0  0  0  0  0  0
    0.4180   -0.8467    0.8364 C   0  0  1  0  0  0  0  0  0  0  0  0
    0.5094    0.4818    1.3023 O   0  0  0  0  0  0  0  0  0  0  0  0
   -0.8220   -0.7928   -0.0987 C   0  0  1  0  0  0  0  0  0  0  0  0
   -0.6430    0.7124   -1.7508 H   0  0  0  0  0  0  0  0  0  0  0  0
    0.6579    2.1932    0.1517 H   0  0  0  0  0  0  0  0  0  0  0  0
    2.7185    0.8981   -0.3143 H   0  0  0  0  0  0  0  0  0  0  0  0
    1.7307    0.4532   -1.7127 H   0  0  0  0  0  0  0  0  0  0  0  0
    2.5281   -1.2590    0.5619 H   0  0  0  0  0  0  0  0  0  0  0  0
    1.5380   -1.7652   -0.8139 H   0  0  0  0  0  0  0  0  0  0  0  0
    0.3281   -1.5457    1.6643 H   0  0  0  0  0  0  0  0  0  0  0  0
   -0.8486   -1.6167   -0.8089 H   0  0  0  0  0  0  0  0  0  0  0  0
  1  2  2  0
  2  3  1  0
  3  4  1  0
  4  5  2  0
  4  6  1  0
  6  7  1  0
  7  8  1  0
  8  9  1  0
  9 10  1  0
 10 11  1  0
 10 12  1  0
 12  2  1  0
 12  6  1  0
 11  7  1  0
  6 13  1  6
  7 14  1  1
  8 15  1  0
  8 16  1  0
  9 17  1  0
  9 18  1  0
 10 19  1  1
 12 20  1  6
M  END
>  <CHEMBL_ID>  (15)
CHEMBL298246

>  <CONF_ID>  (15)
conf_01

>  <GFN2:TOTAL_ENERGY>  (15)
-37.513235017649

>  <GFN2:ATOMIC_ENERGY>  (15)
-32.56466088391199

>  <GFN2:FORMATION_ENERGY>  (15)
-4.9485741337370115

>  <GFN2:TOTAL_ENTHALPY>  (15)
-37.35168852607

>  <GFN2:TOTAL_FREE_ENERGY>  (15)
-37.395523127081

>  <GFN2:DIPOLE>  (15)
4.608|-1.843|-3.546|6.099

>  <GFN2:QUADRUPOLE>  (15)
-3.822|2.55|-2.354|6.248|3.347|6.176

>  <GFN2:ROT_CONSTANTS>  (15)
0.05337128|0.03389828|0.02391373

>  <GFN2:ENTHALPY>  (15)
3675.731|888.752|1481.254|6045.738

>  <GFN2:HEAT_CAPACITY>  (15)
28.921|2.981|4.968|36.870

>  <GFN2:ENTROPY>  (15)
21.007|30.002|41.248|92.258

>  <GFN2:HOMO_ENERGY>  (15)
-0.442841

>  <GFN2:LUMO_ENERGY>  (15)
-0.2937639

>  <GFN2:HOMO_LUMO_GAP>  (15)
0.1490771

>  <GFN2:FERMI_LEVEL>  (15)
-0.3683024

>  <GFN2:MULLIKEN_CHARGES>  (15)
-0.32157330|0.35962403|-0.22413926|0.35968444|-0.32163323|-0.06243122|0.11684184|-0.07159010|-0.07155626|0.11690534|-0.30544920|-0.06241191|0.07340828|0.06334722|0.05915116|0.04793274|0.05918947|0.04794925|0.06331581|0.07343490

>  <GFN2:COVALENT_COORDINATION_NUMBER>  (15)
0.856|2.777|1.709|2.777|0.856|3.895|4.023|3.826|3.826|4.023|1.710|3.894|0.925|0.925|0.925|0.925|0.925|0.925|0.925|0.925

>  <GFN2:DISPERSION_COEFFICIENT_MOLECULAR>  (15)
4309.767977

>  <GFN2:DISPERSION_COEFFICIENT_ATOMIC>  (15)
20.176|20.901|17.718|20.900|20.177|21.642|18.603|21.848|21.847|18.602|19.086|21.641|2.048|2.160|2.209|2.346|2.208|2.346|2.161|2.048

>  <GFN2:POLARIZABILITY_MOLECULAR>  (15)
95.8959

>  <GFN2:POLARIZABILITY_ATOMIC>  (15)
6.022|7.488|5.683|7.488|6.022|6.613|6.127|6.651|6.651|6.127|5.899|6.613|2.238|2.298|2.324|2.395|2.324|2.395|2.299|2.238

>  <GFN2:WIBERG_BOND_ORDER>  (15)
1.846|1.039|1.039|1.846|0.956|0.940|0.980|1.005|0.980|0.985|0.940|0.956|0.999|0.985|0.953|0.965|0.978|0.979|0.978|0.979|0.965|0.953

>  <GFN2:TOTAL_WIBERG_BOND_ORDER>  (15)
2.123|3.908|2.408|3.908|2.123|3.993|3.949|3.994|3.994|3.949|2.095|3.993|0.995|0.996|0.996|0.998|0.996|0.998|0.996|0.995

>  <DFT:TOTAL_ENERGY>  (15)
-609.9435256518254

>  <DFT:ATOMIC_ENERGY>  (15)
-606.3114558323474

>  <DFT:FORMATION_ENERGY>  (15)
-3.6320698194780334

>  <DFT:ESP_AT_NUCLEI>  (15)
-22.298205|-14.562043|-22.230398|-14.562033|-22.298229|-14.662803|-14.627904|-14.685737|-14.685718|-14.627846|-22.275922|-14.66275|-1.052481|-1.073975|-1.088579|-1.082296|-1.088578|-1.082248|-1.073955|-1.052452

>  <DFT:LOWDIN_CHARGES>  (15)
-0.123991|0.111894|-0.048917|0.111901|-0.124196|-0.073252|0.081933|-0.037997|-0.03798|0.081923|-0.156373|-0.073261|0.049494|0.031107|0.035195|0.028286|0.035245|0.028322|0.031138|0.04953

>  <DFT:MULLIKEN_CHARGES>  (15)
-0.167659|0.307192|-0.24116|0.307646|-0.167874|-0.168978|0.051949|0.073316|0.073415|0.052053|-0.377151|-0.16806|0.074006|0.059221|0.05035|0.029012|0.05039|0.029106|0.059237|0.073991

>  <DFT:ROT_CONSTANTS>  (15)
0.0524890332050319|0.028389383313952774|0.021181004727459356

>  <DFT:DIPOLE>  (15)
4.471626623280869|-1.6997298902159292|-3.2202190230294803|5.766657343210941

>  <DFT:XC_ENERGY>  (15)
-56.03318681139595

>  <DFT:NUCLEAR_REPULSION_ENERGY>  (15)
753.9801819830777

>  <DFT:ONE_ELECTRON_ENERGY>  (15)
-2327.1499967313475

>  <DFT:TWO_ELECTRON_ENERGY>  (15)
1019.2735053995244

>  <DFT:HOMO_ENERGY>  (15)
-0.368983650697616

>  <DFT:LUMO_ENERGY>  (15)
0.04149219002263621

>  <DFT:HOMO_LUMO_GAP>  (15)
0.4104758407202522

>  <DFT:MAYER_BOND_ORDER>  (15)
2.232623|1.043521|1.043836|2.232368|0.915238|0.985582|1.051691|1.108719|1.051813|0.971217|0.985592|0.915505|0.991866|0.971263|0.892224|0.956198|0.931674|0.926044|0.93163|0.926125|0.956111|0.892167

>  <DFT:WIBERG_LOWDIN_BOND_ORDER>  (15)
2.352828|1.242857|1.243476|2.352525|0.986902|0.960421|1.005577|1.006127|1.005706|1.135969|0.960398|0.987114|0.985773|1.135952|0.911685|0.93452|0.940568|0.94314|0.940495|0.943152|0.934474|0.911655

>  <DFT:TOTAL_MAYER_BOND_ORDER>  (15)
2.345215|4.251048|2.192906|4.250847|2.345115|3.720747|4.054569|4.030113|4.030362|4.054776|2.025389|3.720825|0.992839|0.996829|0.981319|0.986592|0.981326|0.986579|0.996746|0.992864

>  <DFT:TOTAL_WIBERG_LOWDIN_BOND_ORDER>  (15)
2.677555|4.908205|2.95244|4.90831|2.677287|4.370814|4.494967|4.231702|4.231762|4.494985|2.674783|4.370679|1.098139|1.092684|1.096495|1.099895|1.096519|1.099806|1.0926|1.098115

>  <MBIScharge>  (15)
-0.5749|0.8254|-0.4352|0.8282|-0.5753|-0.3550|0.1973|-0.2753|-0.2719|0.2017|-0.3793|-0.3484|0.1987|0.1184|0.1354|0.1282|0.1322|0.1333|0.1169|0.1998

$$$$

     RDKit          3D

 26 26  0  0  0  0  0  0  0  0999 V2000
   -2.3778    0.8138    0.7415 C   0  0  0  0  0  0  0  0  0  0  0  0
   -2.9800   -0.0958   -0.3230 C   0  0  0  0  0  0  0  0  0  0  0  0
   -2.0022   -0.3979   -1.4641 C   0  0  0  0  0  0  0  0  0  0  0  0
   -0.9171   -1.2038   -1.0501 O   0  0  0  0  0  0  0  0  0  0  0  0
    0.2374   -0.5623   -0.6240 C   0  0  0  0  0  0  0  0  0  0  0  0
    0.9012    0.3855   -1.3815 C   0  0  0  0  0  0  0  0  0  0  0  0
    2.0839    0.9493   -0.9375 C   0  0  0  0  0  0  0  0  0  0  0  0
    2.6385    0.5521    0.2760 C   0  0  0  0  0  0  0  0  0  0  0  0
    3.8659    1.0485    0.6887 N   0  0  0  0  0  0  0  0  0  0  0  0
    1.9805   -0.4130    1.0332 C   0  0  0  0  0  0  0  0  0  0  0  0
    0.7868   -0.9747    0.6031 C   0  0  0  0  0  0  0  0  0  0  0  0
    0.0856   -1.8705    1.3940 N   0  0  0  0  0  0  0  0  0  0  0  0
   -1.5364    0.3281    1.2285 H   0  0  0  0  0  0  0  0  0  0  0  0
   -2.0284    1.7443    0.2970 H   0  0  0  0  0  0  0  0  0  0  0  0
   -3.1229    1.0508    1.4978 H   0  0  0  0  0  0  0  0  0  0  0  0
   -3.2876   -1.0386    0.1331 H   0  0  0  0  0  0  0  0  0  0  0  0
   -3.8643    0.3759   -0.7579 H   0  0  0  0  0  0  0  0  0  0  0  0
   -2.5163   -0.9734   -2.2418 H   0  0  0  0  0  0  0  0  0  0  0  0
   -1.6485    0.5423   -1.9009 H   0  0  0  0  0  0  0  0  0  0  0  0
    0.4975    0.6879   -2.3368 H   0  0  0  0  0  0  0  0  0  0  0  0
    2.5874    1.6910   -1.5395 H   0  0  0  0  0  0  0  0  0  0  0  0
    4.0515    0.9796    1.6767 H   0  0  0  0  0  0  0  0  0  0  0  0
    4.1300    1.9341    0.2872 H   0  0  0  0  0  0  0  0  0  0  0  0
    2.4021   -0.7318    1.9765 H   0  0  0  0  0  0  0  0  0  0  0  0
    0.6427   -2.4301    2.0203 H   0  0  0  0  0  0  0  0  0  0  0  0
   -0.6093   -2.3915    0.8798 H   0  0  0  0  0  0  0  0  0  0  0  0
  1  2  1  0
  2  3  1  0
  3  4  1  0
  4  5  1  0
  5  6  2  0
  6  7  1  0
  7  8  2  0
  8  9  1  0
  8 10  1  0
 10 11  2  0
 11 12  1  0
 11  5  1  0
  1 13  1  0
  1 14  1  0
  1 15  1  0
  2 16  1  0
  2 17  1  0
  3 18  1  0
  3 19  1  0
  6 20  1  0
  7 21  1  0
  9 22  1  0
  9 23  1  0
 10 24  1  0
 12 25  1  0
 12 26  1  0
M  END
>  <CHEMBL_ID>  (16)
CHEMBL1547422

>  <CONF_ID>  (16)
conf_01

>  <GFN2:TOTAL_ENERGY>  (16)
-36.31248225499

>  <GFN2:ATOMIC_ENERGY>  (16)
-30.62768131032299

>  <GFN2:FORMATION_ENERGY>  (16)
-5.6848009446670105

>  <GFN2:TOTAL_ENTHALPY>  (16)
-36.081849576733

>  <GFN2:TOTAL_FREE_ENERGY>  (16)
-36.133587664343

>  <GFN2:DIPOLE>  (16)
0.188|0.867|1.334|1.601

>  <GFN2:QUADRUPOLE>  (16)
0.348|4.801|1.586|6.921|-4.057|-1.934

>  <GFN2:ROT_CONSTANTS>  (16)
0.05712021|0.01943054|0.01773181

>  <GFN2:ENTHALPY>  (16)
6198.900|888.752|1481.254|8568.906

>  <GFN2:HEAT_CAPACITY>  (16)
42.866|2.981|4.968|50.815

>  <GFN2:ENTROPY>  (16)
36.893|30.785|41.214|108.892

>  <GFN2:HOMO_ENERGY>  (16)
-0.3355314

>  <GFN2:LUMO_ENERGY>  (16)
-0.1987165

>  <GFN2:HOMO_LUMO_GAP>  (16)
0.1368149

>  <GFN2:FERMI_LEVEL>  (16)
-0.2671239

>  <GFN2:MULLIKEN_CHARGES>  (16)
-0.10296518|-0.06158140|0.08266497|-0.31466553|0.10008876|-0.05883915|-0.07804331|0.07198482|-0.28446200|-0.09520355|0.06109802|-0.28218093|0.05085522|0.03166018|0.03306103|0.04137513|0.02986443|0.03436911|0.02673851|0.02986709|0.02315095|0.15452765|0.15509065|0.02376452|0.15339286|0.17438713

>  <GFN2:COVALENT_COORDINATION_NUMBER>  (16)
3.751|3.798|3.691|1.703|2.864|2.917|2.923|2.897|2.640|2.928|2.898|2.640|0.925|0.925|0.925|0.924|0.924|0.924|0.924|0.926|0.926|0.860|0.860|0.925|0.860|0.860

>  <GFN2:DISPERSION_COEFFICIENT_MOLECULAR>  (16)
6544.191323

>  <GFN2:DISPERSION_COEFFICIENT_ATOMIC>  (16)
22.528|21.686|19.380|19.251|25.779|29.463|29.950|26.390|27.344|30.394|26.630|27.288|2.309|2.563|2.543|2.431|2.588|2.525|2.633|2.588|2.686|1.371|1.367|2.677|1.378|1.247

>  <GFN2:POLARIZABILITY_MOLECULAR>  (16)
125.511466

>  <GFN2:POLARIZABILITY_ATOMIC>  (16)
6.769|6.631|6.300|5.924|8.322|8.901|8.975|8.423|7.766|9.041|8.461|7.758|2.376|2.504|2.494|2.438|2.516|2.485|2.538|2.516|2.563|1.834|1.831|2.558|1.839|1.749

>  <GFN2:WIBERG_BOND_ORDER>  (16)
1.021|0.995|0.971|0.999|1.414|1.432|1.354|1.136|1.359|1.385|1.144|1.285|0.984|0.988|0.987|0.978|0.976|0.971|0.967|0.966|0.969|0.957|0.957|0.966|0.956|0.948

>  <GFN2:TOTAL_WIBERG_BOND_ORDER>  (16)
3.996|3.996|3.952|2.135|3.926|3.990|3.981|3.971|3.216|3.974|3.974|3.228|0.997|0.999|0.999|0.998|0.999|0.998|0.999|0.998|0.999|0.976|0.975|0.999|0.976|0.969

>  <DFT:TOTAL_ENERGY>  (16)
-535.5602020334948

>  <DFT:ATOMIC_ENERGY>  (16)
-531.2393067823016

>  <DFT:FORMATION_ENERGY>  (16)
-4.320895251193178

>  <DFT:ESP_AT_NUCLEI>  (16)
-14.731428|-14.720002|-14.667257|-22.295137|-14.68378|-14.727606|-14.739082|-14.688457|-18.33067|-14.736446|-14.687806|-18.331446|-1.129206|-1.126011|-1.125758|-1.122414|-1.118183|-1.117542|-1.110492|-1.102658|-1.110893|-1.032924|-1.033173|-1.102702|-1.032657|-1.039204

>  <DFT:LOWDIN_CHARGES>  (16)
-0.06657|-0.059788|0.083193|-0.146207|-0.009284|-0.040323|-0.100729|0.024735|-0.051352|-0.109884|0.014289|-0.044616|0.030754|0.022938|0.024722|0.024177|0.025128|0.019529|0.009374|0.030891|0.020834|0.069138|0.070034|0.019227|0.071273|0.068518

>  <DFT:MULLIKEN_CHARGES>  (16)
-0.056234|-0.094886|0.192592|-0.401893|0.164283|-0.084003|-0.068939|0.088218|-0.145555|-0.1219|0.031111|-0.131964|0.050235|0.024667|0.030707|0.030474|0.025598|0.030272|0.011559|0.00069|-0.024815|0.119854|0.121023|-0.044354|0.122786|0.130472

>  <DFT:ROT_CONSTANTS>  (16)
0.05549026488649206|0.018990840738704794|0.01751729411603857

>  <DFT:DIPOLE>  (16)
0.15367214519899516|0.7274533574627484|1.1108502899128256|1.3367093483975097

>  <DFT:XC_ENERGY>  (16)
-52.5540241594046

>  <DFT:NUCLEAR_REPULSION_ENERGY>  (16)
716.4195748235841

>  <DFT:ONE_ELECTRON_ENERGY>  (16)
-2147.3295862983846

>  <DFT:TWO_ELECTRON_ENERGY>  (16)
947.9208932023641

>  <DFT:HOMO_ENERGY>  (16)
-0.24949174991857817

>  <DFT:LUMO_ENERGY>  (16)
0.0811742340137213

>  <DFT:HOMO_LUMO_GAP>  (16)
0.33066598393229946

>  <DFT:MAYER_BOND_ORDER>  (16)
1.087814|1.073256|0.944681|1.02082|1.389953|1.352573|1.344659|1.181456|1.313171|1.361664|1.196027|1.34777|0.963807|0.974107|0.970879|0.947086|0.947995|0.960266|0.945504|0.989515|0.996025|0.954969|0.954751|0.998764|0.944675|0.93558

>  <DFT:WIBERG_LOWDIN_BOND_ORDER>  (16)
1.056441|1.046879|1.117621|1.178759|1.442601|1.449977|1.37837|1.231784|1.382215|1.405225|1.234608|1.309973|0.953805|0.961565|0.959921|0.939097|0.93529|0.944678|0.935759|0.923541|0.933611|1.02105|1.020662|0.9306|1.018555|1.008437

>  <DFT:TOTAL_MAYER_BOND_ORDER>  (16)
4.002617|4.083757|3.968641|2.072923|3.876868|3.885063|3.792577|3.999874|3.138771|3.779143|4.105298|3.160398|1.011432|0.992936|0.984218|0.983085|0.977842|0.981916|0.993656|0.991287|0.992487|0.999273|0.999167|1.001882|0.998832|1.017757

>  <DFT:TOTAL_WIBERG_LOWDIN_BOND_ORDER>  (16)
4.099943|4.257665|4.316749|2.71207|4.530138|4.298008|4.270436|4.524372|3.535283|4.254872|4.527761|3.552453|1.111603|1.096612|1.093772|1.09997|1.097378|1.092179|1.109977|1.097024|1.09773|1.152714|1.152201|1.100361|1.150586|1.174762

>  <MBIScharge>  (16)
-0.3917|-0.2479|0.0712|-0.3508|0.1313|-0.2280|-0.3501|0.3986|-0.8890|-0.4398|0.2751|-0.8589|0.1470|0.1212|0.1201|0.1157|0.1185|0.0811|0.0871|0.1626|0.1589|0.3985|0.3991|0.1733|0.4010|0.3957

$$$$

     RDKit          3D

 22 23  0  0  0  0  0  0  0  0999 V2000
   -4.3578    0.3598    1.3843 O   0  0  0  0  0  0  0  0  0  0  0  0
   -3.5278    1.1578    0.5671 C   0  0  0  0  0  0  0  0  0  0  0  0
   -2.3228    0.4194    0.0877 C   0  0  0  0  0  0  0  0  0  0  0  0
   -1.0987    0.6754    0.5283 N   0  0  0  0  0  0  0  0  0  0  0  0
   -0.3233   -0.1856   -0.0966 N   0  0  0  0  0  0  0  0  0  0  0  0
    1.0564   -0.2346    0.0961 C   0  0  0  0  0  0  0  0  0  0  0  0
    1.8124   -1.1756   -0.5930 C   0  0  0  0  0  0  0  0  0  0  0  0
    3.1794   -1.2204   -0.3938 C   0  0  0  0  0  0  0  0  0  0  0  0
    3.7878   -0.3370    0.4838 C   0  0  0  0  0  0  0  0  0  0  0  0
    3.0262    0.5991    1.1656 C   0  0  0  0  0  0  0  0  0  0  0  0
    1.6584    0.6568    0.9765 C   0  0  0  0  0  0  0  0  0  0  0  0
   -0.9589   -0.9979   -0.9153 N   0  0  0  0  0  0  0  0  0  0  0  0
   -2.2271   -0.6465   -0.8245 C   0  0  0  0  0  0  0  0  0  0  0  0
   -3.8517    0.0736    2.1531 H   0  0  0  0  0  0  0  0  0  0  0  0
   -4.1499    1.4491   -0.2835 H   0  0  0  0  0  0  0  0  0  0  0  0
   -3.1999    2.0598    1.1008 H   0  0  0  0  0  0  0  0  0  0  0  0
    1.3172   -1.8526   -1.2703 H   0  0  0  0  0  0  0  0  0  0  0  0
    3.7722   -1.9490   -0.9257 H   0  0  0  0  0  0  0  0  0  0  0  0
    4.8556   -0.3777    0.6372 H   0  0  0  0  0  0  0  0  0  0  0  0
    3.5005    1.2877    1.8485 H   0  0  0  0  0  0  0  0  0  0  0  0
    1.0471    1.3774    1.4957 H   0  0  0  0  0  0  0  0  0  0  0  0
   -2.9952   -1.1392   -1.3820 H   0  0  0  0  0  0  0  0  0  0  0  0
  1  2  1  0
  2  3  1  0
  3  4  2  0
  4  5  1  0
  5  6  1  0
  6  7  2  0
  7  8  1  0
  8  9  2  0
  9 10  1  0
 10 11  2  0
  5 12  1  0
 12 13  2  0
 13  3  1  0
 11  6  1  0
  1 14  1  0
  2 15  1  0
  2 16  1  0
  7 17  1  0
  8 18  1  0
  9 19  1  0
 10 20  1  0
 11 21  1  0
 13 22  1  0
M  END
>  <CHEMBL_ID>  (17)
CHEMBL4176461

>  <CONF_ID>  (17)
conf_01

>  <GFN2:TOTAL_ENERGY>  (17)
-36.667634668224

>  <GFN2:ATOMIC_ENERGY>  (17)
-31.26609165192199

>  <GFN2:FORMATION_ENERGY>  (17)
-5.401543016302007

>  <GFN2:TOTAL_ENTHALPY>  (17)
-36.488283257688

>  <GFN2:TOTAL_FREE_ENERGY>  (17)
-36.538579285269

>  <GFN2:DIPOLE>  (17)
2.458|0.302|0.597|2.547

>  <GFN2:QUADRUPOLE>  (17)
-4.583|-1.439|0.802|2.339|-0.747|3.781

>  <GFN2:ROT_CONSTANTS>  (17)
0.08629959|0.01361492|0.01208964

>  <GFN2:ENTHALPY>  (17)
5173.894|888.752|1481.254|7543.900

>  <GFN2:HEAT_CAPACITY>  (17)
35.758|2.981|4.968|43.707

>  <GFN2:ENTROPY>  (17)
33.378|31.109|41.371|105.857

>  <GFN2:HOMO_ENERGY>  (17)
-0.3976852

>  <GFN2:LUMO_ENERGY>  (17)
-0.2695962

>  <GFN2:HOMO_LUMO_GAP>  (17)
0.1280891

>  <GFN2:FERMI_LEVEL>  (17)
-0.3336407

>  <GFN2:MULLIKEN_CHARGES>  (17)
-0.43586465|0.07740601|0.04663276|-0.24903645|0.20589298|0.04408163|-0.03825691|-0.02522807|-0.02960103|-0.02562369|-0.03845766|-0.23115648|0.02323134|0.29011064|0.05451554|0.03613026|0.06385000|0.04362553|0.04116285|0.04307509|0.06186211|0.04164821

>  <GFN2:COVALENT_COORDINATION_NUMBER>  (17)
1.655|3.677|3.126|2.010|3.267|2.924|2.922|2.921|2.919|2.921|2.922|2.004|3.090|0.805|0.924|0.923|0.926|0.926|0.926|0.926|0.926|0.927

>  <GFN2:DISPERSION_COEFFICIENT_MOLECULAR>  (17)
6257.909913

>  <GFN2:DISPERSION_COEFFICIENT_ATOMIC>  (17)
21.558|19.502|26.767|27.277|17.845|27.011|28.951|28.633|28.739|28.643|28.956|26.849|27.383|0.751|2.264|2.501|2.154|2.401|2.433|2.408|2.177|2.427

>  <GFN2:POLARIZABILITY_MOLECULAR>  (17)
124.378188

>  <GFN2:POLARIZABILITY_ATOMIC>  (17)
6.268|6.327|8.472|7.746|6.274|8.523|8.824|8.775|8.791|8.776|8.824|7.685|8.577|1.362|2.353|2.473|2.295|2.423|2.439|2.427|2.307|2.436

>  <GFN2:WIBERG_BOND_ORDER>  (17)
0.991|1.001|1.465|1.237|1.045|1.374|1.453|1.433|1.432|1.454|1.238|1.500|1.339|1.373|0.903|0.964|0.968|0.965|0.970|0.971|0.970|0.965|0.970

>  <GFN2:TOTAL_WIBERG_BOND_ORDER>  (17)
1.962|3.957|3.966|2.994|3.751|3.960|3.987|3.991|3.976|3.991|3.988|3.002|3.969|0.916|0.996|0.999|0.996|0.998|0.998|0.998|0.996|0.998

>  <DFT:TOTAL_ENERGY>  (17)
-587.1940841661228

>  <DFT:ATOMIC_ENERGY>  (17)
-583.2492596879213

>  <DFT:FORMATION_ENERGY>  (17)
-3.9448244782015536

>  <DFT:ESP_AT_NUCLEI>  (17)
-22.305445|-14.65054|-14.684118|-18.308034|-18.208881|-14.657687|-14.705821|-14.705451|-14.708649|-14.705259|-14.705405|-18.308582|-14.684466|-0.993037|-1.097028|-1.10254|-1.08902|-1.090213|-1.092095|-1.08985|-1.088215|-1.068584

>  <DFT:LOWDIN_CHARGES>  (17)
-0.146249|0.073507|-0.091193|-0.080512|0.130456|0.010632|-0.026991|-0.019357|-0.031266|-0.01989|-0.028698|-0.068327|-0.040855|0.078907|0.033166|0.020247|0.038432|0.034293|0.031606|0.034067|0.03711|0.030915

>  <DFT:MULLIKEN_CHARGES>  (17)
-0.349066|0.330509|-0.181869|-0.084906|-0.100505|0.196076|-0.050414|-0.008773|0.001507|-0.009022|-0.051103|-0.07228|0.001192|0.175708|0.031805|0.026378|0.029236|0.021514|0.01782|0.020982|0.025906|0.029305

>  <DFT:ROT_CONSTANTS>  (17)
0.08272201837918242|0.013510068526759709|0.012049323579502483

>  <DFT:DIPOLE>  (17)
1.3270797990013692|0.279636886284391|0.40119329802818166|1.41431737720749

>  <DFT:XC_ENERGY>  (17)
-56.27991326337731

>  <DFT:NUCLEAR_REPULSION_ENERGY>  (17)
735.9771876078102

>  <DFT:ONE_ELECTRON_ENERGY>  (17)
-2255.229129688217

>  <DFT:TWO_ELECTRON_ENERGY>  (17)
988.3488146549655

>  <DFT:HOMO_ENERGY>  (17)
-0.3111142896411932

>  <DFT:LUMO_ENERGY>  (17)
0.020622837269353492

>  <DFT:HOMO_LUMO_GAP>  (17)
0.3317371269105467

>  <DFT:MAYER_BOND_ORDER>  (17)
1.03434|1.01955|1.574941|1.186673|0.928853|1.39646|1.379347|1.390798|1.391341|1.37965|1.204478|1.588695|1.286562|1.394877|0.979165|0.933763|0.940007|0.989366|0.988826|0.993419|0.988713|0.989363|1.008873

>  <DFT:WIBERG_LOWDIN_BOND_ORDER>  (17)
1.178361|1.050697|1.642464|1.386868|1.0821|1.400971|1.472662|1.458753|1.45856|1.472889|1.391622|1.691376|1.346013|1.400792|1.133399|0.935344|0.935776|0.924173|0.931601|0.933756|0.931648|0.924531|0.951366

>  <DFT:TOTAL_MAYER_BOND_ORDER>  (17)
2.063548|3.906758|4.026815|2.966571|3.468584|3.848121|3.870227|3.854624|3.84083|3.855552|3.866819|2.990489|3.976097|1.012867|0.985431|0.993025|1.019739|0.984722|0.983782|0.984655|1.0201|1.00548

>  <DFT:TOTAL_WIBERG_LOWDIN_BOND_ORDER>  (17)
2.504421|4.321176|4.590057|3.61317|4.409044|4.487446|4.286297|4.29416|4.292411|4.29437|4.286641|3.613308|4.399205|1.224576|1.088027|1.097197|1.109315|1.087267|1.088934|1.087317|1.109895|1.088276

>  <MBIScharge>  (17)
-0.6678|0.0618|0.1311|-0.4224|0.3729|0.1223|-0.2003|-0.1209|-0.1554|-0.1214|-0.2012|-0.3941|-0.0325|0.4684|0.1158|0.0906|0.1681|0.1494|0.1472|0.1493|0.1685|0.1705

$$$$

     RDKit          3D

 21 20  0  0  0  0  0  0  0  0999 V2000
   -2.5116   -0.8604   -0.6394 C   0  0  0  0  0  0  0  0  0  0  0  0
   -2.0091    0.5543   -0.3738 C   0  0  0  0  0  0  0  0  0  0  0  0
   -1.2873    0.6985    0.9670 C   0  0  0  0  0  0  0  0  0  0  0  0
    0.0415   -0.0500    1.0227 C   0  0  0  0  0  0  0  0  0  0  0  0
    1.1118    0.5465    0.1563 C   0  0  0  0  0  0  0  0  0  0  0  0
    1.0143    1.5581   -0.4923 O   0  0  0  0  0  0  0  0  0  0  0  0
    2.4265   -0.2529    0.1806 C   0  0  0  0  0  0  0  0  0  0  0  0
    3.1843   -0.1969   -1.1090 C   0  0  0  0  0  0  0  0  0  0  0  0
    2.7780   -0.8502    1.1670 O   0  0  0  0  0  0  0  0  0  0  0  0
   -1.6890   -1.5647   -0.7394 H   0  0  0  0  0  0  0  0  0  0  0  0
   -3.1545   -1.1957    0.1721 H   0  0  0  0  0  0  0  0  0  0  0  0
   -3.0856   -0.8862   -1.5625 H   0  0  0  0  0  0  0  0  0  0  0  0
   -2.8634    1.2346   -0.3754 H   0  0  0  0  0  0  0  0  0  0  0  0
   -1.3409    0.8661   -1.1774 H   0  0  0  0  0  0  0  0  0  0  0  0
   -1.9346    0.3309    1.7661 H   0  0  0  0  0  0  0  0  0  0  0  0
   -1.0931    1.7576    1.1473 H   0  0  0  0  0  0  0  0  0  0  0  0
    0.4462   -0.0515    2.0399 H   0  0  0  0  0  0  0  0  0  0  0  0
   -0.0800   -1.1000    0.7466 H   0  0  0  0  0  0  0  0  0  0  0  0
    4.1823   -0.6090   -0.9921 H   0  0  0  0  0  0  0  0  0  0  0  0
    2.6403   -0.7662   -1.8622 H   0  0  0  0  0  0  0  0  0  0  0  0
    3.2242    0.8367   -1.4478 H   0  0  0  0  0  0  0  0  0  0  0  0
  1  2  1  0
  2  3  1  0
  3  4  1  0
  4  5  1  0
  5  6  2  0
  5  7  1  0
  7  8  1  0
  7  9  2  0
  1 10  1  0
  1 11  1  0
  1 12  1  0
  2 13  1  0
  2 14  1  0
  3 15  1  0
  3 16  1  0
  4 17  1  0
  4 18  1  0
  8 19  1  0
  8 20  1  0
  8 21  1  0
M  END
>  <CHEMBL_ID>  (18)
CHEMBL364588

>  <CONF_ID>  (18)
conf_00

>  <GFN2:TOTAL_ENERGY>  (18)
-29.212257158381

>  <GFN2:ATOMIC_ENERGY>  (18)
-24.810081667538995

>  <GFN2:FORMATION_ENERGY>  (18)
-4.402175490842005

>  <GFN2:TOTAL_ENTHALPY>  (18)
-29.024357022511

>  <GFN2:TOTAL_FREE_ENERGY>  (18)
-29.07342070414

>  <GFN2:DIPOLE>  (18)
-0.943|-1.045|-1.004|1.729

>  <GFN2:QUADRUPOLE>  (18)
1.496|1.909|-3.23|-7.964|5.191|1.734

>  <GFN2:ROT_CONSTANTS>  (18)
0.09676394|0.02780746|0.02678854

>  <GFN2:ENTHALPY>  (18)
5241.763|888.752|1481.254|7611.770

>  <GFN2:HEAT_CAPACITY>  (18)
32.191|2.981|4.968|40.141

>  <GFN2:ENTROPY>  (18)
33.329|29.495|40.439|103.263

>  <GFN2:HOMO_ENERGY>  (18)
-0.3899433

>  <GFN2:LUMO_ENERGY>  (18)
-0.3085303

>  <GFN2:HOMO_LUMO_GAP>  (18)
0.081413

>  <GFN2:FERMI_LEVEL>  (18)
-0.3492368

>  <GFN2:MULLIKEN_CHARGES>  (18)
-0.10277905|-0.05578841|-0.05536862|-0.08105235|0.21416977|-0.33116305|0.21696867|-0.13687627|-0.33391914|0.02874719|0.03501547|0.03506064|0.03489961|0.04415335|0.03858959|0.04849304|0.08432353|0.07146446|0.07484191|0.07927551|0.09094414

>  <GFN2:COVALENT_COORDINATION_NUMBER>  (18)
3.751|3.800|3.802|3.804|2.811|0.857|2.809|3.754|0.857|0.925|0.925|0.925|0.924|0.924|0.924|0.924|0.924|0.924|0.925|0.925|0.925

>  <GFN2:DISPERSION_COEFFICIENT_MOLECULAR>  (18)
3619.096577

>  <GFN2:DISPERSION_COEFFICIENT_ATOMIC>  (18)
22.525|21.578|21.568|22.044|23.476|20.353|23.423|23.192|20.405|2.604|2.516|2.516|2.518|2.394|2.468|2.339|1.935|2.070|2.033|1.987|1.870

>  <GFN2:POLARIZABILITY_MOLECULAR>  (18)
89.749063

>  <GFN2:POLARIZABILITY_ATOMIC>  (18)
6.768|6.614|6.612|6.684|7.938|6.049|7.929|6.867|6.056|2.524|2.481|2.480|2.481|2.420|2.457|2.392|2.175|2.250|2.230|2.204|2.138

>  <GFN2:WIBERG_BOND_ORDER>  (18)
1.020|1.007|1.006|1.008|1.871|0.911|1.020|1.875|0.985|0.987|0.987|0.978|0.977|0.976|0.975|0.930|0.940|0.979|0.946|0.954

>  <GFN2:TOTAL_WIBERG_BOND_ORDER>  (18)
3.997|3.996|3.994|3.995|3.912|2.095|3.912|3.992|2.090|0.999|0.999|0.999|0.999|0.998|0.998|0.998|0.993|0.995|0.994|0.994|0.992

>  <DFT:TOTAL_ENERGY>  (18)
-423.97442327678755

>  <DFT:ATOMIC_ENERGY>  (18)
-420.5699684226928

>  <DFT:FORMATION_ENERGY>  (18)
-3.4044548540947517

>  <DFT:ESP_AT_NUCLEI>  (18)
-14.718359|-14.715012|-14.708368|-14.698128|-14.622855|-22.29558|-14.621221|-14.70003|-22.299308|-1.111993|-1.113839|-1.113969|-1.12257|-1.12284|-1.113764|-1.117036|-1.082099|-1.081161|-1.08674|-1.070245|-1.079293

>  <DFT:LOWDIN_CHARGES>  (18)
-0.065973|-0.045784|-0.035687|-0.069487|0.067319|-0.125725|0.062841|-0.082092|-0.127605|0.017639|0.023508|0.028165|0.026334|0.023374|0.024906|0.030326|0.05761|0.043096|0.041653|0.053218|0.052366

>  <DFT:MULLIKEN_CHARGES>  (18)
-0.058891|-0.086757|0.001198|-0.067414|0.043184|-0.200208|0.030898|-0.024503|-0.195009|0.02398|0.028659|0.03761|0.031491|0.04093|0.023743|0.034914|0.078548|0.052536|0.059745|0.066164|0.079183

>  <DFT:ROT_CONSTANTS>  (18)
0.09494760025835987|0.02617916427894233|0.0253967823505669

>  <DFT:DIPOLE>  (18)
-0.7532248868629711|-0.7562775508783892|-0.8606182084558106|1.3711189462909625

>  <DFT:XC_ENERGY>  (18)
-40.92907541741128

>  <DFT:NUCLEAR_REPULSION_ENERGY>  (18)
451.7420277559357

>  <DFT:ONE_ELECTRON_ENERGY>  (18)
-1470.293085604762

>  <DFT:TWO_ELECTRON_ENERGY>  (18)
635.5177825808106

>  <DFT:HOMO_ENERGY>  (18)
-0.3242858662395016

>  <DFT:LUMO_ENERGY>  (18)
-0.004524324459376727

>  <DFT:HOMO_LUMO_GAP>  (18)
0.3197615417801249

>  <DFT:MAYER_BOND_ORDER>  (18)
1.079|1.068291|1.07113|0.960386|2.128735|0.829343|1.027215|2.163149|0.973393|0.973754|0.971589|0.953081|0.956908|0.950127|0.942212|0.912412|0.931149|0.958044|0.946491|0.944622

>  <DFT:WIBERG_LOWDIN_BOND_ORDER>  (18)
1.055449|1.035063|1.027435|1.048054|2.277506|0.962628|1.072858|2.296303|0.961358|0.961928|0.960067|0.937452|0.93789|0.936084|0.934264|0.905062|0.91216|0.952552|0.935207|0.936931

>  <DFT:TOTAL_MAYER_BOND_ORDER>  (18)
3.995604|4.077931|4.051802|3.891364|3.935678|2.261899|4.068765|3.876869|2.269614|0.991466|0.98893|0.986378|0.976149|0.996501|0.982797|0.98848|0.998544|1.001186|1.007929|0.995567|1.009666

>  <DFT:TOTAL_WIBERG_LOWDIN_BOND_ORDER>  (18)
4.100871|4.247439|4.244254|4.248133|4.678729|2.640609|4.686866|4.090619|2.629496|1.102703|1.095453|1.092988|1.09599|1.1112|1.098562|1.102188|1.102013|1.106367|1.094227|1.090414|1.103303

>  <MBIScharge>  (18)
-0.3875|-0.1770|-0.1757|-0.3868|0.4720|-0.4792|0.5059|-0.5773|-0.4992|0.1174|0.1205|0.1221|0.1028|0.1127|0.1107|0.1111|0.1746|0.1700|0.1809|0.1922|0.1896

$$$$

     RDKit          3D

 19 20  0  0  0  0  0  0  0  0999 V2000
   -2.3977   -1.0925   -1.2079 O   0  0  0  0  0  0  0  0  0  0  0  0
   -2.3912   -0.5204    0.0856 C   0  0  0  0  0  0  0  0  0  0  0  0
   -1.2698    0.4692    0.1743 C   0  0  0  0  0  0  0  0  0  0  0  0
   -1.4384    1.8008    0.3344 C   0  0  0  0  0  0  0  0  0  0  0  0
    0.0415    2.6932    0.4113 S   0  0  0  0  0  0  0  0  0  0  0  0
    0.9591    1.2273    0.2045 C   0  0  0  0  0  0  0  0  0  0  0  0
    2.3395    1.1097    0.1528 C   0  0  0  0  0  0  0  0  0  0  0  0
    2.8817   -0.1471   -0.0189 C   0  0  0  0  0  0  0  0  0  0  0  0
    2.0610   -1.2681   -0.1389 C   0  0  0  0  0  0  0  0  0  0  0  0
    0.6900   -1.1518   -0.0874 C   0  0  0  0  0  0  0  0  0  0  0  0
    0.1155    0.1074    0.0886 C   0  0  0  0  0  0  0  0  0  0  0  0
   -3.1282   -1.7164   -1.2721 H   0  0  0  0  0  0  0  0  0  0  0  0
   -3.3432   -0.0097    0.2900 H   0  0  0  0  0  0  0  0  0  0  0  0
   -2.2447   -1.3014    0.8489 H   0  0  0  0  0  0  0  0  0  0  0  0
   -2.3629    2.3381    0.4238 H   0  0  0  0  0  0  0  0  0  0  0  0
    2.9661    1.9837    0.2445 H   0  0  0  0  0  0  0  0  0  0  0  0
    3.9548   -0.2638   -0.0618 H   0  0  0  0  0  0  0  0  0  0  0  0
    2.5112   -2.2400   -0.2779 H   0  0  0  0  0  0  0  0  0  0  0  0
    0.0555   -2.0179   -0.1941 H   0  0  0  0  0  0  0  0  0  0  0  0
  1  2  1  0
  2  3  1  0
  3  4  2  0
  4  5  1  0
  5  6  1  0
  6  7  2  0
  7  8  1  0
  8  9  2  0
  9 10  1  0
 10 11  2  0
 11  3  1  0
 11  6  1  0
  1 12  1  0
  2 13  1  0
  2 14  1  0
  4 15  1  0
  7 16  1  0
  8 17  1  0
  9 18  1  0
 10 19  1  0
M  END
>  <CHEMBL_ID>  (19)
CHEMBL3358210

>  <CONF_ID>  (19)
conf_01

>  <GFN2:TOTAL_ENERGY>  (19)
-30.64357690692

>  <GFN2:ATOMIC_ENERGY>  (19)
-26.201593274550994

>  <GFN2:FORMATION_ENERGY>  (19)
-4.441983632369006

>  <GFN2:TOTAL_ENTHALPY>  (19)
-30.491069745365

>  <GFN2:TOTAL_FREE_ENERGY>  (19)
-30.536766822477

>  <GFN2:DIPOLE>  (19)
-1.545|-1.835|1.045|2.617

>  <GFN2:QUADRUPOLE>  (19)
10.488|2.949|-3.307|-1.837|-0.471|-7.181

>  <GFN2:ROT_CONSTANTS>  (19)
0.04535607|0.03222977|0.01950659

>  <GFN2:ENTHALPY>  (19)
4273.020|888.752|1481.254|6643.027

>  <GFN2:HEAT_CAPACITY>  (19)
31.362|2.981|4.968|39.312

>  <GFN2:ENTROPY>  (19)
24.583|30.416|41.178|96.178

>  <GFN2:HOMO_ENERGY>  (19)
-0.3739434

>  <GFN2:LUMO_ENERGY>  (19)
-0.2510504

>  <GFN2:HOMO_LUMO_GAP>  (19)
0.122893

>  <GFN2:FERMI_LEVEL>  (19)
-0.3124969

>  <GFN2:MULLIKEN_CHARGES>  (19)
-0.43640747|0.09240417|-0.00904622|-0.01863759|-0.05789517|0.03309746|-0.03797115|-0.03178253|-0.03437472|-0.02898528|0.00283243|0.28670173|0.01770223|0.02328865|0.04501745|0.03988113|0.03560294|0.03402483|0.04454712

>  <GFN2:COVALENT_COORDINATION_NUMBER>  (19)
1.656|3.677|3.114|2.939|2.246|3.007|2.933|2.924|2.919|2.916|3.147|0.805|0.923|0.923|0.926|0.926|0.926|0.926|0.926

>  <GFN2:DISPERSION_COEFFICIENT_MOLECULAR>  (19)
5698.076703

>  <GFN2:DISPERSION_COEFFICIENT_ATOMIC>  (19)
21.568|19.263|28.084|28.474|143.456|27.244|28.944|28.793|28.856|28.724|27.694|0.762|2.769|2.684|2.383|2.450|2.508|2.530|2.389

>  <GFN2:POLARIZABILITY_MOLECULAR>  (19)
121.318343

>  <GFN2:POLARIZABILITY_ATOMIC>  (19)
6.269|6.288|8.681|8.751|20.159|8.562|8.823|8.800|8.809|8.789|8.609|1.371|2.602|2.562|2.414|2.448|2.477|2.487|2.417

>  <GFN2:WIBERG_BOND_ORDER>  (19)
0.989|0.999|1.661|1.151|1.101|1.380|1.474|1.385|1.494|1.336|1.164|1.295|0.904|0.970|0.961|0.969|0.969|0.970|0.971|0.967

>  <GFN2:TOTAL_WIBERG_BOND_ORDER>  (19)
1.954|3.960|3.984|3.955|2.542|3.957|3.991|3.992|3.992|3.992|3.988|0.917|0.999|0.999|0.997|0.998|0.999|0.998|0.998

>  <DFT:TOTAL_ENERGY>  (19)
-820.6081552820986

>  <DFT:ATOMIC_ENERGY>  (19)
-817.1514455320972

>  <DFT:FORMATION_ENERGY>  (19)
-3.4567097500013233

>  <DFT:ESP_AT_NUCLEI>  (19)
-22.307007|-14.651609|-14.710166|-14.69239|-59.174584|-14.6935|-14.709246|-14.71507|-14.718003|-14.714749|-14.711899|-0.992514|-1.104448|-1.104737|-1.067368|-1.090828|-1.099251|-1.101836|-1.099019

>  <DFT:LOWDIN_CHARGES>  (19)
-0.150102|0.079571|-0.078101|-0.166963|0.386746|-0.156484|-0.042848|-0.031375|-0.035421|-0.015722|-0.04366|0.078375|0.012864|0.013338|0.025597|0.032009|0.031159|0.030396|0.030622

>  <DFT:MULLIKEN_CHARGES>  (19)
-0.329909|0.26666|-0.079068|-0.127554|0.093003|-0.100683|-0.024522|-0.012852|-0.004502|-0.034797|0.075766|0.175669|0.005619|0.020159|0.043069|0.004641|0.015474|0.01115|0.002678

>  <DFT:ROT_CONSTANTS>  (19)
0.04097885138379189|0.031912109348367024|0.0185977304684197

>  <DFT:DIPOLE>  (19)
-1.527215113726295|-1.1521789230234993|0.8354100261529666|2.087537349618088

>  <DFT:XC_ENERGY>  (19)
-60.35749593783708

>  <DFT:NUCLEAR_REPULSION_ENERGY>  (19)
657.937727647324

>  <DFT:ONE_ELECTRON_ENERGY>  (19)
-2428.0100436184503

>  <DFT:TWO_ELECTRON_ENERGY>  (19)
1009.8321020792439

>  <DFT:HOMO_ENERGY>  (19)
-0.2906813120020625

>  <DFT:LUMO_ENERGY>  (19)
0.03750001234402335

>  <DFT:HOMO_LUMO_GAP>  (19)
0.3281813243460858

>  <DFT:MAYER_BOND_ORDER>  (19)
1.077559|1.048111|1.673168|1.117938|1.069633|1.362187|1.446787|1.338352|1.44118|1.343189|1.170451|1.328931|0.976648|0.931196|0.92927|0.962308|0.995356|0.988085|0.987182|0.985806

>  <DFT:WIBERG_LOWDIN_BOND_ORDER>  (19)
1.163754|1.035068|1.692308|1.270919|1.222289|1.408647|1.507175|1.404931|1.521369|1.348009|1.158458|1.318054|1.133531|0.939088|0.934201|0.961741|0.93102|0.933273|0.93286|0.928141

>  <DFT:TOTAL_MAYER_BOND_ORDER>  (19)
2.07207|4.016262|4.019119|3.86438|2.381266|3.866618|3.932296|3.867238|3.841867|3.87236|3.99572|1.010071|0.984517|0.971617|1.002663|0.992308|0.983706|0.983831|1.00553

>  <DFT:TOTAL_WIBERG_LOWDIN_BOND_ORDER>  (19)
2.490108|4.318672|4.467597|4.335933|2.972188|4.503372|4.296346|4.293113|4.293499|4.285529|4.464086|1.222009|1.095315|1.095506|1.099588|1.090856|1.088877|1.089316|1.098672

>  <MBIScharge>  (19)
-0.6679|0.1032|-0.0233|-0.2594|0.0235|-0.0230|-0.1370|-0.1645|-0.1526|-0.1775|0.0597|0.4620|0.0771|0.0711|0.2040|0.1575|0.1477|0.1449|0.1542

$$$$

     RDKit          3D

 27 26  0  0  0  0  0  0  0  0999 V2000
   -3.3197    1.2169   -0.0988 C   0  0  0  0  0  0  0  0  0  0  0  0
   -2.6022    0.8587    1.1976 C   0  0  0  0  0  0  0  0  0  0  0  0
   -1.7934   -0.4360    1.1041 C   0  0  0  0  0  0  0  0  0  0  0  0
   -0.5713   -0.3213    0.1950 C   0  0  0  0  0  0  0  0  0  0  0  0
    0.2369   -1.6189    0.1903 C   0  0  0  0  0  0  0  0  0  0  0  0
    1.5247   -1.5178   -0.6540 C   0  0  1  0  0  0  0  0  0  0  0  0
    1.2565   -1.3988   -2.0286 O   0  0  0  0  0  0  0  0  0  0  0  0
    2.4056   -0.4313   -0.1201 C   0  0  0  0  0  0  0  0  0  0  0  0
    2.9586    0.5484   -0.8392 C   0  0  0  0  0  0  0  0  0  0  0  0
    3.7991    1.5657   -0.2110 C   0  0  0  0  0  0  0  0  0  0  0  0
    4.0090    1.6627    0.9729 O   0  0  0  0  0  0  0  0  0  0  0  0
   -2.6114    1.4378   -0.8933 H   0  0  0  0  0  0  0  0  0  0  0  0
   -3.9442    2.0953    0.0475 H   0  0  0  0  0  0  0  0  0  0  0  0
   -3.9557    0.3951   -0.4212 H   0  0  0  0  0  0  0  0  0  0  0  0
   -1.9392    1.6777    1.4853 H   0  0  0  0  0  0  0  0  0  0  0  0
   -3.3466    0.7437    1.9887 H   0  0  0  0  0  0  0  0  0  0  0  0
   -2.4396   -1.2386    0.7410 H   0  0  0  0  0  0  0  0  0  0  0  0
   -1.4569   -0.7109    2.1066 H   0  0  0  0  0  0  0  0  0  0  0  0
    0.0609    0.5007    0.5418 H   0  0  0  0  0  0  0  0  0  0  0  0
   -0.9007   -0.0910   -0.8203 H   0  0  0  0  0  0  0  0  0  0  0  0
   -0.3737   -2.4289   -0.2132 H   0  0  0  0  0  0  0  0  0  0  0  0
    0.5141   -1.8798    1.2128 H   0  0  0  0  0  0  0  0  0  0  0  0
    2.0693   -2.4679   -0.5595 H   0  0  0  0  0  0  0  0  0  0  0  0
    0.7534   -0.5888   -2.1716 H   0  0  0  0  0  0  0  0  0  0  0  0
    2.5972   -0.4649    0.9446 H   0  0  0  0  0  0  0  0  0  0  0  0
    2.8220    0.6094   -1.9092 H   0  0  0  0  0  0  0  0  0  0  0  0
    4.2478    2.2827   -0.9262 H   0  0  0  0  0  0  0  0  0  0  0  0
  1  2  1  0
  2  3  1  0
  3  4  1  0
  4  5  1  0
  5  6  1  0
  6  7  1  0
  6  8  1  0
  8  9  2  0
  9 10  1  0
 10 11  2  0
  1 12  1  0
  1 13  1  0
  1 14  1  0
  2 15  1  0
  2 16  1  0
  3 17  1  0
  3 18  1  0
  4 19  1  0
  4 20  1  0
  5 21  1  0
  5 22  1  0
  6 23  1  6
  7 24  1  0
  8 25  1  0
  9 26  1  0
 10 27  1  0
M  END
>  <CHEMBL_ID>  (20)
CHEMBL454280

>  <CONF_ID>  (20)
conf_01

>  <GFN2:TOTAL_ENERGY>  (20)
-35.516440319009

>  <GFN2:ATOMIC_ENERGY>  (20)
-29.970605466012987

>  <GFN2:FORMATION_ENERGY>  (20)
-5.545834852996013

>  <GFN2:TOTAL_ENTHALPY>  (20)
-35.270144431612

>  <GFN2:TOTAL_FREE_ENERGY>  (20)
-35.325218078925

>  <GFN2:DIPOLE>  (20)
-2.549|-0.445|-1.095|2.809

>  <GFN2:QUADRUPOLE>  (20)
-4.814|-4.461|3.484|-7.205|-10.203|1.33

>  <GFN2:ROT_CONSTANTS>  (20)
0.04538762|0.01602725|0.01365874

>  <GFN2:ENTHALPY>  (20)
6784.203|888.752|1481.254|9154.210

>  <GFN2:HEAT_CAPACITY>  (20)
41.809|2.981|4.968|49.758

>  <GFN2:ENTROPY>  (20)
43.419|31.464|41.029|115.912

>  <GFN2:HOMO_ENERGY>  (20)
-0.4007275

>  <GFN2:LUMO_ENERGY>  (20)
-0.2942717

>  <GFN2:HOMO_LUMO_GAP>  (20)
0.1064558

>  <GFN2:FERMI_LEVEL>  (20)
-0.3474996

>  <GFN2:MULLIKEN_CHARGES>  (20)
-0.10243723|-0.05416791|-0.05943210|-0.05673207|-0.07440837|0.11164214|-0.43829115|-0.01866184|-0.06387204|0.20858173|-0.33989648|0.03181320|0.03411109|0.03542952|0.03207959|0.03228919|0.03465364|0.03130452|0.03230521|0.03199594|0.05015467|0.04114418|0.06453828|0.29294413|0.07404117|0.05517517|0.01369583

>  <GFN2:COVALENT_COORDINATION_NUMBER>  (20)
3.751|3.800|3.802|3.801|3.804|3.728|1.656|2.898|2.889|2.766|0.856|0.925|0.925|0.925|0.924|0.924|0.924|0.924|0.924|0.924|0.924|0.924|0.923|0.805|0.925|0.926|0.922

>  <GFN2:DISPERSION_COEFFICIENT_MOLECULAR>  (20)
5885.453247

>  <GFN2:DISPERSION_COEFFICIENT_ATOMIC>  (20)
22.518|21.548|21.642|21.594|21.919|18.843|21.606|28.473|29.587|23.577|20.517|2.561|2.529|2.511|2.557|2.554|2.521|2.568|2.554|2.558|2.318|2.434|2.147|0.743|2.042|2.256|2.832

>  <GFN2:POLARIZABILITY_MOLECULAR>  (20)
115.581868

>  <GFN2:POLARIZABILITY_ATOMIC>  (20)
6.767|6.609|6.623|6.616|6.665|6.197|6.275|8.749|8.918|7.952|6.073|2.502|2.487|2.478|2.501|2.499|2.483|2.506|2.499|2.501|2.381|2.440|2.291|1.354|2.234|2.349|2.632

>  <GFN2:WIBERG_BOND_ORDER>  (20)
1.020|1.007|1.007|1.008|0.961|0.999|1.018|1.819|1.080|1.859|0.986|0.987|0.988|0.978|0.978|0.977|0.977|0.974|0.972|0.975|0.976|0.934|0.892|0.959|0.964|0.934

>  <GFN2:TOTAL_WIBERG_BOND_ORDER>  (20)
3.997|3.997|3.997|3.998|3.994|3.960|1.973|3.978|3.989|3.929|2.078|0.999|0.999|0.999|0.999|0.999|0.999|0.999|0.999|0.999|0.997|0.998|0.996|0.914|0.995|0.997|1.000

>  <DFT:TOTAL_ENERGY>  (20)
-502.49400150947105

>  <DFT:ATOMIC_ENERGY>  (20)
-498.1761384279332

>  <DFT:FORMATION_ENERGY>  (20)
-4.317863081537837

>  <DFT:ESP_AT_NUCLEI>  (20)
-14.717652|-14.711461|-14.710368|-14.704658|-14.703139|-14.644128|-22.296811|-14.693388|-14.711508|-14.63565|-22.321235|-1.112253|-1.113297|-1.112571|-1.118096|-1.119906|-1.113933|-1.115616|-1.107792|-1.104191|-1.104954|-1.100212|-1.093252|-0.984587|-1.078026|-1.082445|-1.09519

>  <DFT:LOWDIN_CHARGES>  (20)
-0.065088|-0.044284|-0.037253|-0.046473|-0.043365|0.055197|-0.122034|0.0374|-0.116738|0.107197|-0.155629|0.02003|0.027739|0.023929|0.022602|0.024644|0.021122|0.023673|0.024896|0.013994|0.029848|0.02735|0.040683|0.070912|0.038172|0.026589|-0.005115

>  <DFT:MULLIKEN_CHARGES>  (20)
-0.061199|-0.049221|-0.040062|-0.094143|-0.035438|0.205161|-0.321961|-0.047132|-0.12431|0.185856|-0.227832|0.030338|0.037086|0.028942|0.025567|0.02828|0.019695|0.024162|0.03471|0.008686|0.038403|0.028671|0.048529|0.177644|0.049176|0.025235|0.005155

>  <DFT:ROT_CONSTANTS>  (20)
0.04536639442981126|0.014970860159452945|0.012888271224875241

>  <DFT:DIPOLE>  (20)
-2.2317323663053266|-0.4257761017709249|-0.8913444674958678|2.440575670490368

>  <DFT:XC_ENERGY>  (20)
-49.31205724935093

>  <DFT:NUCLEAR_REPULSION_ENERGY>  (20)
608.1825015405694

>  <DFT:ONE_ELECTRON_ENERGY>  (20)
-1886.8126407246245

>  <DFT:TWO_ELECTRON_ENERGY>  (20)
825.4661101418244

>  <DFT:HOMO_ENERGY>  (20)
-0.33978334934401083

>  <DFT:LUMO_ENERGY>  (20)
0.00477948604074054

>  <DFT:HOMO_LUMO_GAP>  (20)
0.34456283538475135

>  <DFT:MAYER_BOND_ORDER>  (20)
1.084787|1.078816|1.070897|1.053517|1.035511|1.039991|0.979759|1.817653|1.011776|2.115452|0.97388|0.971587|0.974361|0.951781|0.952302|0.9503|0.949454|0.94384|0.939062|0.942628|0.941641|0.913028|0.972033|0.955824|0.951166|0.951597

>  <DFT:WIBERG_LOWDIN_BOND_ORDER>  (20)
1.055087|1.035991|1.028582|1.026689|1.004048|1.17557|1.045838|1.839087|1.135458|2.27942|0.96169|0.960183|0.962107|0.939421|0.937939|0.936759|0.935202|0.932077|0.931985|0.933204|0.931061|0.900861|1.12872|0.919477|0.927907|0.925976

>  <DFT:TOTAL_MAYER_BOND_ORDER>  (20)
4.00559|4.082479|4.063576|4.0175|3.991651|3.990113|2.09921|3.870799|3.769839|4.100605|2.238797|0.990668|0.985657|0.98952|0.979706|0.975344|0.983379|0.980279|0.994571|0.997345|0.989533|0.986199|0.980955|1.021394|1.01352|1.013455|0.974882

>  <DFT:TOTAL_WIBERG_LOWDIN_BOND_ORDER>  (20)
4.100301|4.249319|4.253972|4.252792|4.258418|4.502228|2.552912|4.297882|4.29646|4.538538|2.59709|1.101982|1.092898|1.095296|1.098228|1.096487|1.100609|1.099185|1.10837|1.117456|1.100841|1.10174|1.090974|1.244092|1.106177|1.109135|1.089923

>  <MBIScharge>  (20)
-0.3886|-0.1701|-0.2051|-0.1790|-0.3406|0.2200|-0.6580|-0.0597|-0.3847|0.5057|-0.5474|0.1191|0.1210|0.1208|0.1010|0.0998|0.1077|0.1042|0.1170|0.0985|0.1386|0.1398|0.1172|0.4624|0.1569|0.1750|0.0284

$$$$
